*SPEF "ieee 1481-1999"
*DESIGN "tiny_user_project"
*DATE "11:11:11 Fri 11 11, 1111"
*VENDOR "OpenRCX"
*PROGRAM "Parallel Extraction"
*VERSION "1.0"
*DESIGN_FLOW "NAME_SCOPE LOCAL" "PIN_CAP NONE"
*DIVIDER /
*DELIMITER :
*BUS_DELIMITER []
*T_UNIT 1 NS
*C_UNIT 1 PF
*R_UNIT 1 OHM
*L_UNIT 1 HENRY

*NAME_MAP
*1 io_in[0]
*2 io_in[10]
*3 io_in[11]
*4 io_in[12]
*5 io_in[13]
*6 io_in[14]
*7 io_in[15]
*8 io_in[16]
*9 io_in[17]
*10 io_in[18]
*11 io_in[19]
*12 io_in[1]
*13 io_in[20]
*14 io_in[21]
*15 io_in[22]
*16 io_in[23]
*17 io_in[24]
*18 io_in[25]
*19 io_in[26]
*20 io_in[27]
*21 io_in[28]
*22 io_in[29]
*23 io_in[2]
*24 io_in[30]
*25 io_in[31]
*26 io_in[32]
*27 io_in[33]
*28 io_in[34]
*29 io_in[35]
*30 io_in[36]
*31 io_in[37]
*32 io_in[3]
*33 io_in[4]
*34 io_in[5]
*35 io_in[6]
*36 io_in[7]
*37 io_in[8]
*38 io_in[9]
*39 net110
*40 net120
*41 net121
*42 net122
*43 net123
*44 net124
*45 net125
*46 net126
*47 net127
*48 net128
*49 net129
*50 net111
*51 net130
*52 net131
*53 net132
*54 net133
*55 net134
*56 net135
*57 net136
*58 net137
*59 net138
*60 net139
*61 net112
*62 net140
*63 net141
*64 net142
*65 net143
*66 net144
*67 net145
*68 net146
*69 net147
*70 net113
*71 net114
*72 net115
*73 net116
*74 net117
*75 net118
*76 net119
*77 net79
*78 net89
*79 net90
*80 net91
*81 net92
*82 net93
*83 net94
*84 io_out[16]
*85 io_out[17]
*86 io_out[18]
*87 io_out[19]
*88 net80
*89 io_out[20]
*90 io_out[21]
*91 io_out[22]
*92 net95
*93 net96
*94 net97
*95 net98
*96 net99
*97 net100
*98 net101
*99 net81
*100 net102
*101 net103
*102 net104
*103 net105
*104 net106
*105 net107
*106 net108
*107 net109
*108 net82
*109 net83
*110 net84
*111 net85
*112 net86
*113 net87
*114 net88
*115 la_data_in[0]
*116 la_data_in[10]
*117 la_data_in[11]
*118 la_data_in[12]
*119 la_data_in[13]
*120 la_data_in[14]
*121 la_data_in[15]
*122 la_data_in[16]
*123 la_data_in[17]
*124 la_data_in[18]
*125 la_data_in[19]
*126 la_data_in[1]
*127 la_data_in[20]
*128 la_data_in[21]
*129 la_data_in[22]
*130 la_data_in[23]
*131 la_data_in[24]
*132 la_data_in[25]
*133 la_data_in[26]
*134 la_data_in[27]
*135 la_data_in[28]
*136 la_data_in[29]
*137 la_data_in[2]
*138 la_data_in[30]
*139 la_data_in[31]
*140 la_data_in[32]
*141 la_data_in[33]
*142 la_data_in[34]
*143 la_data_in[35]
*144 la_data_in[36]
*145 la_data_in[37]
*146 la_data_in[38]
*147 la_data_in[39]
*148 la_data_in[3]
*149 la_data_in[40]
*150 la_data_in[41]
*151 la_data_in[42]
*152 la_data_in[43]
*153 la_data_in[44]
*154 la_data_in[45]
*155 la_data_in[46]
*156 la_data_in[47]
*157 la_data_in[48]
*158 la_data_in[49]
*159 la_data_in[4]
*160 la_data_in[50]
*161 la_data_in[51]
*162 la_data_in[52]
*163 la_data_in[53]
*164 la_data_in[54]
*165 la_data_in[55]
*166 la_data_in[56]
*167 la_data_in[57]
*168 la_data_in[58]
*169 la_data_in[59]
*170 la_data_in[5]
*171 la_data_in[60]
*172 la_data_in[61]
*173 la_data_in[62]
*174 la_data_in[63]
*175 la_data_in[6]
*176 la_data_in[7]
*177 la_data_in[8]
*178 la_data_in[9]
*179 net15
*180 net25
*181 net26
*182 net27
*183 net28
*184 net29
*185 net30
*186 net31
*187 net32
*188 net33
*189 net34
*190 net16
*191 net35
*192 net36
*193 net37
*194 net38
*195 net39
*196 net40
*197 net41
*198 net42
*199 net43
*200 net44
*201 net17
*202 net45
*203 net46
*204 net47
*205 net48
*206 net49
*207 net50
*208 net51
*209 net52
*210 net53
*211 net54
*212 net18
*213 net55
*214 net56
*215 net57
*216 net58
*217 net59
*218 net60
*219 net61
*220 net62
*221 net63
*222 net64
*223 net19
*224 net65
*225 net66
*226 net67
*227 net68
*228 net69
*229 net70
*230 net71
*231 net72
*232 net73
*233 net74
*234 net20
*235 net75
*236 net76
*237 net77
*238 net78
*239 net21
*240 net22
*241 net23
*242 net24
*243 la_oenb[0]
*244 la_oenb[10]
*245 la_oenb[11]
*246 la_oenb[12]
*247 la_oenb[13]
*248 la_oenb[14]
*249 la_oenb[15]
*250 la_oenb[16]
*251 la_oenb[17]
*252 la_oenb[18]
*253 la_oenb[19]
*254 la_oenb[1]
*255 la_oenb[20]
*256 la_oenb[21]
*257 la_oenb[22]
*258 la_oenb[23]
*259 la_oenb[24]
*260 la_oenb[25]
*261 la_oenb[26]
*262 la_oenb[27]
*263 la_oenb[28]
*264 la_oenb[29]
*265 la_oenb[2]
*266 la_oenb[30]
*267 la_oenb[31]
*268 la_oenb[32]
*269 la_oenb[33]
*270 la_oenb[34]
*271 la_oenb[35]
*272 la_oenb[36]
*273 la_oenb[37]
*274 la_oenb[38]
*275 la_oenb[39]
*276 la_oenb[3]
*277 la_oenb[40]
*278 la_oenb[41]
*279 la_oenb[42]
*280 la_oenb[43]
*281 la_oenb[44]
*282 la_oenb[45]
*283 la_oenb[46]
*284 la_oenb[47]
*285 la_oenb[48]
*286 la_oenb[49]
*287 la_oenb[4]
*288 la_oenb[50]
*289 la_oenb[51]
*290 la_oenb[52]
*291 la_oenb[53]
*292 la_oenb[54]
*293 la_oenb[55]
*294 la_oenb[56]
*295 la_oenb[57]
*296 la_oenb[58]
*297 la_oenb[59]
*298 la_oenb[5]
*299 la_oenb[60]
*300 la_oenb[61]
*301 la_oenb[62]
*302 la_oenb[63]
*303 la_oenb[6]
*304 la_oenb[7]
*305 la_oenb[8]
*306 la_oenb[9]
*307 user_clock2
*308 net148
*309 net149
*310 net150
*313 wb_clk_i
*314 wb_rst_i
*315 net151
*316 wbs_adr_i[0]
*317 wbs_adr_i[10]
*318 wbs_adr_i[11]
*319 wbs_adr_i[12]
*320 wbs_adr_i[13]
*321 wbs_adr_i[14]
*322 wbs_adr_i[15]
*323 wbs_adr_i[16]
*324 wbs_adr_i[17]
*325 wbs_adr_i[18]
*326 wbs_adr_i[19]
*327 wbs_adr_i[1]
*328 wbs_adr_i[20]
*329 wbs_adr_i[21]
*330 wbs_adr_i[22]
*331 wbs_adr_i[23]
*332 wbs_adr_i[24]
*333 wbs_adr_i[25]
*334 wbs_adr_i[26]
*335 wbs_adr_i[27]
*336 wbs_adr_i[28]
*337 wbs_adr_i[29]
*338 wbs_adr_i[2]
*339 wbs_adr_i[30]
*340 wbs_adr_i[31]
*341 wbs_adr_i[3]
*342 wbs_adr_i[4]
*343 wbs_adr_i[5]
*344 wbs_adr_i[6]
*345 wbs_adr_i[7]
*346 wbs_adr_i[8]
*347 wbs_adr_i[9]
*348 wbs_cyc_i
*349 wbs_dat_i[0]
*350 wbs_dat_i[10]
*351 wbs_dat_i[11]
*352 wbs_dat_i[12]
*353 wbs_dat_i[13]
*354 wbs_dat_i[14]
*355 wbs_dat_i[15]
*356 wbs_dat_i[16]
*357 wbs_dat_i[17]
*358 wbs_dat_i[18]
*359 wbs_dat_i[19]
*360 wbs_dat_i[1]
*361 wbs_dat_i[20]
*362 wbs_dat_i[21]
*363 wbs_dat_i[22]
*364 wbs_dat_i[23]
*365 wbs_dat_i[24]
*366 wbs_dat_i[25]
*367 wbs_dat_i[26]
*368 wbs_dat_i[27]
*369 wbs_dat_i[28]
*370 wbs_dat_i[29]
*371 wbs_dat_i[2]
*372 wbs_dat_i[30]
*373 wbs_dat_i[31]
*374 wbs_dat_i[3]
*375 wbs_dat_i[4]
*376 wbs_dat_i[5]
*377 wbs_dat_i[6]
*378 wbs_dat_i[7]
*379 wbs_dat_i[8]
*380 wbs_dat_i[9]
*381 net152
*382 net162
*383 net163
*384 net164
*385 net165
*386 net166
*387 net167
*388 net168
*389 net169
*390 net170
*391 net171
*392 net153
*393 net172
*394 net173
*395 net174
*396 net175
*397 net176
*398 net177
*399 net178
*400 net179
*401 net180
*402 net181
*403 net154
*404 net182
*405 net183
*406 net155
*407 net156
*408 net157
*409 net158
*410 net159
*411 net160
*412 net161
*413 wbs_sel_i[0]
*414 wbs_sel_i[1]
*415 wbs_sel_i[2]
*416 wbs_sel_i[3]
*417 wbs_stb_i
*418 wbs_we_i
*419 _000_
*420 _001_
*421 _002_
*422 _003_
*423 _004_
*424 _005_
*425 _006_
*426 _007_
*427 _008_
*428 _009_
*429 _010_
*430 _011_
*431 _012_
*432 _013_
*433 _014_
*434 _015_
*435 _016_
*436 _017_
*437 _018_
*438 _019_
*439 _020_
*440 _021_
*441 _022_
*442 _023_
*443 _024_
*444 _025_
*445 _026_
*446 _027_
*447 _028_
*448 _029_
*449 _030_
*450 _031_
*451 _032_
*452 _033_
*453 _034_
*454 _035_
*455 _036_
*456 _037_
*457 _038_
*458 _039_
*459 _040_
*460 _041_
*461 _042_
*462 mod\.flipflop10\.d
*463 mod\.flipflop10\.q
*464 mod\.flipflop4\.d
*465 mod\.flipflop4\.q
*466 mod\.flipflop7\.clk
*467 mod\.flipflop7\.d
*468 mod\.flipflop7\.q
*469 mod\.flipflop8\.clk
*470 mod\.flipflop8\.d
*471 mod\.flipflop8\.q
*472 mod\.flipflop9\.clk
*473 mod\.flipflop9\.d
*474 mod\.flipflop9\.q
*475 net1
*476 net10
*477 net11
*478 net12
*479 net13
*480 net14
*481 net2
*482 net3
*483 net4
*484 net5
*485 net6
*486 net7
*487 net8
*488 net9
*489 ANTENNA__043__I
*490 ANTENNA__045__A1
*491 ANTENNA__045__A2
*492 ANTENNA__046__A1
*493 ANTENNA__047__A2
*494 ANTENNA__049__A1
*495 ANTENNA__049__A2
*496 ANTENNA__050__A1
*497 ANTENNA__051__I
*498 ANTENNA__052__A1
*499 ANTENNA__052__A2
*500 ANTENNA__053__A1
*501 ANTENNA__055__A1
*502 ANTENNA__055__A2
*503 ANTENNA__056__A1
*504 ANTENNA__057__I
*505 ANTENNA__058__I
*506 ANTENNA__059__A2
*507 ANTENNA__060__A1
*508 ANTENNA__060__A2
*509 ANTENNA__062__I
*510 ANTENNA__063__I
*511 ANTENNA__064__A1
*512 ANTENNA__064__A2
*513 ANTENNA__065__A1
*514 ANTENNA__065__A2
*515 ANTENNA__066__A1
*516 ANTENNA__066__A2
*517 ANTENNA__067__A1
*518 ANTENNA__067__A2
*519 ANTENNA__068__A1
*520 ANTENNA__068__A2
*521 ANTENNA__069__A1
*522 ANTENNA__069__A2
*523 ANTENNA__070__A1
*524 ANTENNA__071__A1
*525 ANTENNA__071__A2
*526 ANTENNA__072__A1
*527 ANTENNA__072__A2
*528 ANTENNA__073__A1
*529 ANTENNA__073__A2
*530 ANTENNA__074__A2
*531 ANTENNA__076__A1
*532 ANTENNA__076__A2
*533 ANTENNA__077__I
*534 ANTENNA__078__A1
*535 ANTENNA__078__A2
*536 ANTENNA__079__A1
*537 ANTENNA__079__A2
*538 ANTENNA__080__A1
*539 ANTENNA__080__A2
*540 ANTENNA__081__A1
*541 ANTENNA__081__A2
*542 ANTENNA__081__C
*543 ANTENNA__082__C
*544 ANTENNA__083__A1
*545 ANTENNA__083__A2
*546 ANTENNA__083__B1
*547 ANTENNA__084__A1
*548 ANTENNA__084__A2
*549 ANTENNA__084__B
*550 ANTENNA__086__B
*551 ANTENNA__086__C
*552 ANTENNA__089__A2
*553 ANTENNA__089__A3
*554 ANTENNA__090__A1
*555 ANTENNA__091__A1
*556 ANTENNA__091__A2
*557 ANTENNA__092__A1
*558 ANTENNA__092__A2
*559 ANTENNA__093__A1
*560 ANTENNA__093__B
*561 ANTENNA__094__A1
*562 ANTENNA__094__A2
*563 ANTENNA__094__B
*564 ANTENNA__095__A1
*565 ANTENNA__095__A2
*566 ANTENNA__095__B1
*567 ANTENNA__095__B2
*568 ANTENNA__096__A2
*569 ANTENNA__097__A3
*570 ANTENNA__098__A1
*571 ANTENNA__098__B1
*572 ANTENNA__099__A1
*573 ANTENNA__099__B1
*574 ANTENNA__100__A1
*575 ANTENNA__101__CLK
*576 ANTENNA__105__CLK
*577 ANTENNA_input1_I
*578 ANTENNA_input2_I
*579 ANTENNA_input3_I
*580 ANTENNA_input4_I
*581 ANTENNA_input5_I
*582 ANTENNA_input6_I
*583 ANTENNA_input7_I
*584 ANTENNA_output10_I
*585 ANTENNA_output11_I
*586 ANTENNA_output12_I
*587 ANTENNA_output13_I
*588 ANTENNA_output14_I
*589 ANTENNA_output8_I
*590 ANTENNA_output9_I
*591 FILLER_0_101
*592 FILLER_0_1011
*593 FILLER_0_1014
*594 FILLER_0_1017
*595 FILLER_0_1032
*596 FILLER_0_1038
*597 FILLER_0_1044
*598 FILLER_0_107
*599 FILLER_0_11
*600 FILLER_0_115
*601 FILLER_0_119
*602 FILLER_0_135
*603 FILLER_0_139
*604 FILLER_0_142
*605 FILLER_0_174
*606 FILLER_0_177
*607 FILLER_0_2
*608 FILLER_0_209
*609 FILLER_0_212
*610 FILLER_0_228
*611 FILLER_0_233
*612 FILLER_0_237
*613 FILLER_0_239
*614 FILLER_0_244
*615 FILLER_0_247
*616 FILLER_0_251
*617 FILLER_0_257
*618 FILLER_0_263
*619 FILLER_0_27
*620 FILLER_0_279
*621 FILLER_0_282
*622 FILLER_0_287
*623 FILLER_0_299
*624 FILLER_0_317
*625 FILLER_0_323
*626 FILLER_0_329
*627 FILLER_0_345
*628 FILLER_0_349
*629 FILLER_0_352
*630 FILLER_0_368
*631 FILLER_0_37
*632 FILLER_0_372
*633 FILLER_0_377
*634 FILLER_0_387
*635 FILLER_0_395
*636 FILLER_0_411
*637 FILLER_0_419
*638 FILLER_0_422
*639 FILLER_0_426
*640 FILLER_0_431
*641 FILLER_0_447
*642 FILLER_0_449
*643 FILLER_0_454
*644 FILLER_0_457
*645 FILLER_0_462
*646 FILLER_0_466
*647 FILLER_0_468
*648 FILLER_0_473
*649 FILLER_0_485
*650 FILLER_0_489
*651 FILLER_0_492
*652 FILLER_0_508
*653 FILLER_0_516
*654 FILLER_0_521
*655 FILLER_0_527
*656 FILLER_0_53
*657 FILLER_0_543
*658 FILLER_0_551
*659 FILLER_0_559
*660 FILLER_0_562
*661 FILLER_0_59
*662 FILLER_0_594
*663 FILLER_0_597
*664 FILLER_0_6
*665 FILLER_0_602
*666 FILLER_0_608
*667 FILLER_0_612
*668 FILLER_0_617
*669 FILLER_0_625
*670 FILLER_0_629
*671 FILLER_0_632
*672 FILLER_0_65
*673 FILLER_0_664
*674 FILLER_0_667
*675 FILLER_0_672
*676 FILLER_0_676
*677 FILLER_0_678
*678 FILLER_0_683
*679 FILLER_0_69
*680 FILLER_0_695
*681 FILLER_0_699
*682 FILLER_0_702
*683 FILLER_0_718
*684 FILLER_0_72
*685 FILLER_0_726
*686 FILLER_0_731
*687 FILLER_0_737
*688 FILLER_0_749
*689 FILLER_0_761
*690 FILLER_0_769
*691 FILLER_0_77
*692 FILLER_0_772
*693 FILLER_0_777
*694 FILLER_0_793
*695 FILLER_0_801
*696 FILLER_0_807
*697 FILLER_0_827
*698 FILLER_0_835
*699 FILLER_0_839
*700 FILLER_0_842
*701 FILLER_0_874
*702 FILLER_0_877
*703 FILLER_0_885
*704 FILLER_0_893
*705 FILLER_0_909
*706 FILLER_0_912
*707 FILLER_0_93
*708 FILLER_0_944
*709 FILLER_0_947
*710 FILLER_0_952
*711 FILLER_0_960
*712 FILLER_0_964
*713 FILLER_0_966
*714 FILLER_0_971
*715 FILLER_0_979
*716 FILLER_0_982
*717 FILLER_0_987
*718 FILLER_0_995
*719 FILLER_100_101
*720 FILLER_100_1024
*721 FILLER_100_1028
*722 FILLER_100_1031
*723 FILLER_100_1039
*724 FILLER_100_1043
*725 FILLER_100_105
*726 FILLER_100_108
*727 FILLER_100_172
*728 FILLER_100_176
*729 FILLER_100_179
*730 FILLER_100_2
*731 FILLER_100_243
*732 FILLER_100_247
*733 FILLER_100_250
*734 FILLER_100_314
*735 FILLER_100_318
*736 FILLER_100_321
*737 FILLER_100_34
*738 FILLER_100_37
*739 FILLER_100_385
*740 FILLER_100_389
*741 FILLER_100_392
*742 FILLER_100_456
*743 FILLER_100_460
*744 FILLER_100_463
*745 FILLER_100_527
*746 FILLER_100_531
*747 FILLER_100_534
*748 FILLER_100_598
*749 FILLER_100_602
*750 FILLER_100_605
*751 FILLER_100_669
*752 FILLER_100_673
*753 FILLER_100_676
*754 FILLER_100_740
*755 FILLER_100_744
*756 FILLER_100_747
*757 FILLER_100_811
*758 FILLER_100_815
*759 FILLER_100_818
*760 FILLER_100_882
*761 FILLER_100_886
*762 FILLER_100_889
*763 FILLER_100_953
*764 FILLER_100_957
*765 FILLER_100_960
*766 FILLER_101_1028
*767 FILLER_101_1036
*768 FILLER_101_1044
*769 FILLER_101_137
*770 FILLER_101_141
*771 FILLER_101_144
*772 FILLER_101_2
*773 FILLER_101_208
*774 FILLER_101_212
*775 FILLER_101_215
*776 FILLER_101_279
*777 FILLER_101_283
*778 FILLER_101_286
*779 FILLER_101_350
*780 FILLER_101_354
*781 FILLER_101_357
*782 FILLER_101_421
*783 FILLER_101_425
*784 FILLER_101_428
*785 FILLER_101_492
*786 FILLER_101_496
*787 FILLER_101_499
*788 FILLER_101_563
*789 FILLER_101_567
*790 FILLER_101_570
*791 FILLER_101_634
*792 FILLER_101_638
*793 FILLER_101_641
*794 FILLER_101_66
*795 FILLER_101_70
*796 FILLER_101_705
*797 FILLER_101_709
*798 FILLER_101_712
*799 FILLER_101_73
*800 FILLER_101_776
*801 FILLER_101_780
*802 FILLER_101_783
*803 FILLER_101_847
*804 FILLER_101_851
*805 FILLER_101_854
*806 FILLER_101_918
*807 FILLER_101_922
*808 FILLER_101_925
*809 FILLER_101_989
*810 FILLER_101_993
*811 FILLER_101_996
*812 FILLER_102_101
*813 FILLER_102_1024
*814 FILLER_102_1028
*815 FILLER_102_1031
*816 FILLER_102_1039
*817 FILLER_102_1043
*818 FILLER_102_105
*819 FILLER_102_108
*820 FILLER_102_13
*821 FILLER_102_172
*822 FILLER_102_176
*823 FILLER_102_179
*824 FILLER_102_2
*825 FILLER_102_243
*826 FILLER_102_247
*827 FILLER_102_250
*828 FILLER_102_29
*829 FILLER_102_314
*830 FILLER_102_318
*831 FILLER_102_321
*832 FILLER_102_33
*833 FILLER_102_37
*834 FILLER_102_385
*835 FILLER_102_389
*836 FILLER_102_392
*837 FILLER_102_456
*838 FILLER_102_460
*839 FILLER_102_463
*840 FILLER_102_527
*841 FILLER_102_531
*842 FILLER_102_534
*843 FILLER_102_598
*844 FILLER_102_602
*845 FILLER_102_605
*846 FILLER_102_669
*847 FILLER_102_673
*848 FILLER_102_676
*849 FILLER_102_7
*850 FILLER_102_740
*851 FILLER_102_744
*852 FILLER_102_747
*853 FILLER_102_811
*854 FILLER_102_815
*855 FILLER_102_818
*856 FILLER_102_882
*857 FILLER_102_886
*858 FILLER_102_889
*859 FILLER_102_953
*860 FILLER_102_957
*861 FILLER_102_960
*862 FILLER_103_1028
*863 FILLER_103_1036
*864 FILLER_103_1044
*865 FILLER_103_137
*866 FILLER_103_141
*867 FILLER_103_144
*868 FILLER_103_2
*869 FILLER_103_208
*870 FILLER_103_212
*871 FILLER_103_215
*872 FILLER_103_279
*873 FILLER_103_283
*874 FILLER_103_286
*875 FILLER_103_350
*876 FILLER_103_354
*877 FILLER_103_357
*878 FILLER_103_421
*879 FILLER_103_425
*880 FILLER_103_428
*881 FILLER_103_492
*882 FILLER_103_496
*883 FILLER_103_499
*884 FILLER_103_563
*885 FILLER_103_567
*886 FILLER_103_570
*887 FILLER_103_634
*888 FILLER_103_638
*889 FILLER_103_641
*890 FILLER_103_66
*891 FILLER_103_70
*892 FILLER_103_705
*893 FILLER_103_709
*894 FILLER_103_712
*895 FILLER_103_73
*896 FILLER_103_776
*897 FILLER_103_780
*898 FILLER_103_783
*899 FILLER_103_847
*900 FILLER_103_851
*901 FILLER_103_854
*902 FILLER_103_918
*903 FILLER_103_922
*904 FILLER_103_925
*905 FILLER_103_989
*906 FILLER_103_993
*907 FILLER_103_996
*908 FILLER_104_101
*909 FILLER_104_1024
*910 FILLER_104_1028
*911 FILLER_104_1031
*912 FILLER_104_1039
*913 FILLER_104_1043
*914 FILLER_104_105
*915 FILLER_104_108
*916 FILLER_104_17
*917 FILLER_104_172
*918 FILLER_104_176
*919 FILLER_104_179
*920 FILLER_104_2
*921 FILLER_104_21
*922 FILLER_104_243
*923 FILLER_104_247
*924 FILLER_104_250
*925 FILLER_104_29
*926 FILLER_104_314
*927 FILLER_104_318
*928 FILLER_104_321
*929 FILLER_104_33
*930 FILLER_104_37
*931 FILLER_104_385
*932 FILLER_104_389
*933 FILLER_104_392
*934 FILLER_104_456
*935 FILLER_104_460
*936 FILLER_104_463
*937 FILLER_104_527
*938 FILLER_104_531
*939 FILLER_104_534
*940 FILLER_104_598
*941 FILLER_104_602
*942 FILLER_104_605
*943 FILLER_104_669
*944 FILLER_104_673
*945 FILLER_104_676
*946 FILLER_104_740
*947 FILLER_104_744
*948 FILLER_104_747
*949 FILLER_104_811
*950 FILLER_104_815
*951 FILLER_104_818
*952 FILLER_104_882
*953 FILLER_104_886
*954 FILLER_104_889
*955 FILLER_104_953
*956 FILLER_104_957
*957 FILLER_104_960
*958 FILLER_105_1028
*959 FILLER_105_1044
*960 FILLER_105_137
*961 FILLER_105_141
*962 FILLER_105_144
*963 FILLER_105_2
*964 FILLER_105_208
*965 FILLER_105_212
*966 FILLER_105_215
*967 FILLER_105_279
*968 FILLER_105_283
*969 FILLER_105_286
*970 FILLER_105_350
*971 FILLER_105_354
*972 FILLER_105_357
*973 FILLER_105_421
*974 FILLER_105_425
*975 FILLER_105_428
*976 FILLER_105_492
*977 FILLER_105_496
*978 FILLER_105_499
*979 FILLER_105_563
*980 FILLER_105_567
*981 FILLER_105_570
*982 FILLER_105_634
*983 FILLER_105_638
*984 FILLER_105_641
*985 FILLER_105_66
*986 FILLER_105_70
*987 FILLER_105_705
*988 FILLER_105_709
*989 FILLER_105_712
*990 FILLER_105_73
*991 FILLER_105_776
*992 FILLER_105_780
*993 FILLER_105_783
*994 FILLER_105_847
*995 FILLER_105_851
*996 FILLER_105_854
*997 FILLER_105_918
*998 FILLER_105_922
*999 FILLER_105_925
*1000 FILLER_105_989
*1001 FILLER_105_993
*1002 FILLER_105_996
*1003 FILLER_106_101
*1004 FILLER_106_1024
*1005 FILLER_106_1028
*1006 FILLER_106_1031
*1007 FILLER_106_1039
*1008 FILLER_106_1043
*1009 FILLER_106_105
*1010 FILLER_106_108
*1011 FILLER_106_172
*1012 FILLER_106_176
*1013 FILLER_106_179
*1014 FILLER_106_2
*1015 FILLER_106_243
*1016 FILLER_106_247
*1017 FILLER_106_250
*1018 FILLER_106_314
*1019 FILLER_106_318
*1020 FILLER_106_321
*1021 FILLER_106_34
*1022 FILLER_106_37
*1023 FILLER_106_385
*1024 FILLER_106_389
*1025 FILLER_106_392
*1026 FILLER_106_456
*1027 FILLER_106_460
*1028 FILLER_106_463
*1029 FILLER_106_527
*1030 FILLER_106_531
*1031 FILLER_106_534
*1032 FILLER_106_598
*1033 FILLER_106_602
*1034 FILLER_106_605
*1035 FILLER_106_669
*1036 FILLER_106_673
*1037 FILLER_106_676
*1038 FILLER_106_740
*1039 FILLER_106_744
*1040 FILLER_106_747
*1041 FILLER_106_811
*1042 FILLER_106_815
*1043 FILLER_106_818
*1044 FILLER_106_882
*1045 FILLER_106_886
*1046 FILLER_106_889
*1047 FILLER_106_953
*1048 FILLER_106_957
*1049 FILLER_106_960
*1050 FILLER_107_1028
*1051 FILLER_107_1044
*1052 FILLER_107_137
*1053 FILLER_107_141
*1054 FILLER_107_144
*1055 FILLER_107_2
*1056 FILLER_107_208
*1057 FILLER_107_212
*1058 FILLER_107_215
*1059 FILLER_107_279
*1060 FILLER_107_283
*1061 FILLER_107_286
*1062 FILLER_107_350
*1063 FILLER_107_354
*1064 FILLER_107_357
*1065 FILLER_107_421
*1066 FILLER_107_425
*1067 FILLER_107_428
*1068 FILLER_107_492
*1069 FILLER_107_496
*1070 FILLER_107_499
*1071 FILLER_107_563
*1072 FILLER_107_567
*1073 FILLER_107_570
*1074 FILLER_107_634
*1075 FILLER_107_638
*1076 FILLER_107_641
*1077 FILLER_107_66
*1078 FILLER_107_70
*1079 FILLER_107_705
*1080 FILLER_107_709
*1081 FILLER_107_712
*1082 FILLER_107_73
*1083 FILLER_107_776
*1084 FILLER_107_780
*1085 FILLER_107_783
*1086 FILLER_107_847
*1087 FILLER_107_851
*1088 FILLER_107_854
*1089 FILLER_107_918
*1090 FILLER_107_922
*1091 FILLER_107_925
*1092 FILLER_107_989
*1093 FILLER_107_993
*1094 FILLER_107_996
*1095 FILLER_108_101
*1096 FILLER_108_1024
*1097 FILLER_108_1028
*1098 FILLER_108_1031
*1099 FILLER_108_1039
*1100 FILLER_108_1044
*1101 FILLER_108_105
*1102 FILLER_108_108
*1103 FILLER_108_172
*1104 FILLER_108_176
*1105 FILLER_108_179
*1106 FILLER_108_2
*1107 FILLER_108_243
*1108 FILLER_108_247
*1109 FILLER_108_250
*1110 FILLER_108_314
*1111 FILLER_108_318
*1112 FILLER_108_321
*1113 FILLER_108_34
*1114 FILLER_108_37
*1115 FILLER_108_385
*1116 FILLER_108_389
*1117 FILLER_108_392
*1118 FILLER_108_456
*1119 FILLER_108_460
*1120 FILLER_108_463
*1121 FILLER_108_527
*1122 FILLER_108_531
*1123 FILLER_108_534
*1124 FILLER_108_598
*1125 FILLER_108_602
*1126 FILLER_108_605
*1127 FILLER_108_669
*1128 FILLER_108_673
*1129 FILLER_108_676
*1130 FILLER_108_740
*1131 FILLER_108_744
*1132 FILLER_108_747
*1133 FILLER_108_811
*1134 FILLER_108_815
*1135 FILLER_108_818
*1136 FILLER_108_882
*1137 FILLER_108_886
*1138 FILLER_108_889
*1139 FILLER_108_953
*1140 FILLER_108_957
*1141 FILLER_108_960
*1142 FILLER_109_1028
*1143 FILLER_109_1044
*1144 FILLER_109_137
*1145 FILLER_109_141
*1146 FILLER_109_144
*1147 FILLER_109_2
*1148 FILLER_109_208
*1149 FILLER_109_212
*1150 FILLER_109_215
*1151 FILLER_109_279
*1152 FILLER_109_283
*1153 FILLER_109_286
*1154 FILLER_109_350
*1155 FILLER_109_354
*1156 FILLER_109_357
*1157 FILLER_109_421
*1158 FILLER_109_425
*1159 FILLER_109_428
*1160 FILLER_109_492
*1161 FILLER_109_496
*1162 FILLER_109_499
*1163 FILLER_109_563
*1164 FILLER_109_567
*1165 FILLER_109_570
*1166 FILLER_109_634
*1167 FILLER_109_638
*1168 FILLER_109_641
*1169 FILLER_109_66
*1170 FILLER_109_70
*1171 FILLER_109_705
*1172 FILLER_109_709
*1173 FILLER_109_712
*1174 FILLER_109_73
*1175 FILLER_109_776
*1176 FILLER_109_780
*1177 FILLER_109_783
*1178 FILLER_109_847
*1179 FILLER_109_851
*1180 FILLER_109_854
*1181 FILLER_109_918
*1182 FILLER_109_922
*1183 FILLER_109_925
*1184 FILLER_109_989
*1185 FILLER_109_993
*1186 FILLER_109_996
*1187 FILLER_10_101
*1188 FILLER_10_1024
*1189 FILLER_10_1028
*1190 FILLER_10_1031
*1191 FILLER_10_1039
*1192 FILLER_10_1043
*1193 FILLER_10_105
*1194 FILLER_10_108
*1195 FILLER_10_172
*1196 FILLER_10_176
*1197 FILLER_10_179
*1198 FILLER_10_2
*1199 FILLER_10_23
*1200 FILLER_10_243
*1201 FILLER_10_247
*1202 FILLER_10_250
*1203 FILLER_10_31
*1204 FILLER_10_314
*1205 FILLER_10_318
*1206 FILLER_10_321
*1207 FILLER_10_37
*1208 FILLER_10_385
*1209 FILLER_10_389
*1210 FILLER_10_392
*1211 FILLER_10_456
*1212 FILLER_10_460
*1213 FILLER_10_463
*1214 FILLER_10_527
*1215 FILLER_10_531
*1216 FILLER_10_534
*1217 FILLER_10_598
*1218 FILLER_10_602
*1219 FILLER_10_605
*1220 FILLER_10_669
*1221 FILLER_10_673
*1222 FILLER_10_676
*1223 FILLER_10_7
*1224 FILLER_10_740
*1225 FILLER_10_744
*1226 FILLER_10_747
*1227 FILLER_10_811
*1228 FILLER_10_815
*1229 FILLER_10_818
*1230 FILLER_10_882
*1231 FILLER_10_886
*1232 FILLER_10_889
*1233 FILLER_10_953
*1234 FILLER_10_957
*1235 FILLER_10_960
*1236 FILLER_110_101
*1237 FILLER_110_1024
*1238 FILLER_110_1028
*1239 FILLER_110_1031
*1240 FILLER_110_1039
*1241 FILLER_110_1043
*1242 FILLER_110_105
*1243 FILLER_110_108
*1244 FILLER_110_172
*1245 FILLER_110_176
*1246 FILLER_110_179
*1247 FILLER_110_2
*1248 FILLER_110_243
*1249 FILLER_110_247
*1250 FILLER_110_250
*1251 FILLER_110_314
*1252 FILLER_110_318
*1253 FILLER_110_321
*1254 FILLER_110_34
*1255 FILLER_110_37
*1256 FILLER_110_385
*1257 FILLER_110_389
*1258 FILLER_110_392
*1259 FILLER_110_456
*1260 FILLER_110_460
*1261 FILLER_110_463
*1262 FILLER_110_527
*1263 FILLER_110_531
*1264 FILLER_110_534
*1265 FILLER_110_598
*1266 FILLER_110_602
*1267 FILLER_110_605
*1268 FILLER_110_669
*1269 FILLER_110_673
*1270 FILLER_110_676
*1271 FILLER_110_740
*1272 FILLER_110_744
*1273 FILLER_110_747
*1274 FILLER_110_811
*1275 FILLER_110_815
*1276 FILLER_110_818
*1277 FILLER_110_882
*1278 FILLER_110_886
*1279 FILLER_110_889
*1280 FILLER_110_953
*1281 FILLER_110_957
*1282 FILLER_110_960
*1283 FILLER_111_1028
*1284 FILLER_111_1044
*1285 FILLER_111_137
*1286 FILLER_111_141
*1287 FILLER_111_144
*1288 FILLER_111_2
*1289 FILLER_111_208
*1290 FILLER_111_212
*1291 FILLER_111_215
*1292 FILLER_111_279
*1293 FILLER_111_283
*1294 FILLER_111_286
*1295 FILLER_111_350
*1296 FILLER_111_354
*1297 FILLER_111_357
*1298 FILLER_111_421
*1299 FILLER_111_425
*1300 FILLER_111_428
*1301 FILLER_111_492
*1302 FILLER_111_496
*1303 FILLER_111_499
*1304 FILLER_111_563
*1305 FILLER_111_567
*1306 FILLER_111_570
*1307 FILLER_111_634
*1308 FILLER_111_638
*1309 FILLER_111_641
*1310 FILLER_111_66
*1311 FILLER_111_70
*1312 FILLER_111_705
*1313 FILLER_111_709
*1314 FILLER_111_712
*1315 FILLER_111_73
*1316 FILLER_111_776
*1317 FILLER_111_780
*1318 FILLER_111_783
*1319 FILLER_111_847
*1320 FILLER_111_851
*1321 FILLER_111_854
*1322 FILLER_111_918
*1323 FILLER_111_922
*1324 FILLER_111_925
*1325 FILLER_111_989
*1326 FILLER_111_993
*1327 FILLER_111_996
*1328 FILLER_112_101
*1329 FILLER_112_1024
*1330 FILLER_112_1028
*1331 FILLER_112_1031
*1332 FILLER_112_1039
*1333 FILLER_112_1044
*1334 FILLER_112_105
*1335 FILLER_112_108
*1336 FILLER_112_172
*1337 FILLER_112_176
*1338 FILLER_112_179
*1339 FILLER_112_2
*1340 FILLER_112_23
*1341 FILLER_112_243
*1342 FILLER_112_247
*1343 FILLER_112_250
*1344 FILLER_112_31
*1345 FILLER_112_314
*1346 FILLER_112_318
*1347 FILLER_112_321
*1348 FILLER_112_37
*1349 FILLER_112_385
*1350 FILLER_112_389
*1351 FILLER_112_392
*1352 FILLER_112_456
*1353 FILLER_112_460
*1354 FILLER_112_463
*1355 FILLER_112_527
*1356 FILLER_112_531
*1357 FILLER_112_534
*1358 FILLER_112_598
*1359 FILLER_112_602
*1360 FILLER_112_605
*1361 FILLER_112_669
*1362 FILLER_112_673
*1363 FILLER_112_676
*1364 FILLER_112_7
*1365 FILLER_112_740
*1366 FILLER_112_744
*1367 FILLER_112_747
*1368 FILLER_112_811
*1369 FILLER_112_815
*1370 FILLER_112_818
*1371 FILLER_112_882
*1372 FILLER_112_886
*1373 FILLER_112_889
*1374 FILLER_112_953
*1375 FILLER_112_957
*1376 FILLER_112_960
*1377 FILLER_113_1028
*1378 FILLER_113_1044
*1379 FILLER_113_137
*1380 FILLER_113_141
*1381 FILLER_113_144
*1382 FILLER_113_2
*1383 FILLER_113_208
*1384 FILLER_113_212
*1385 FILLER_113_215
*1386 FILLER_113_279
*1387 FILLER_113_283
*1388 FILLER_113_286
*1389 FILLER_113_350
*1390 FILLER_113_354
*1391 FILLER_113_357
*1392 FILLER_113_421
*1393 FILLER_113_425
*1394 FILLER_113_428
*1395 FILLER_113_492
*1396 FILLER_113_496
*1397 FILLER_113_499
*1398 FILLER_113_563
*1399 FILLER_113_567
*1400 FILLER_113_570
*1401 FILLER_113_634
*1402 FILLER_113_638
*1403 FILLER_113_641
*1404 FILLER_113_66
*1405 FILLER_113_70
*1406 FILLER_113_705
*1407 FILLER_113_709
*1408 FILLER_113_712
*1409 FILLER_113_73
*1410 FILLER_113_776
*1411 FILLER_113_780
*1412 FILLER_113_783
*1413 FILLER_113_847
*1414 FILLER_113_851
*1415 FILLER_113_854
*1416 FILLER_113_918
*1417 FILLER_113_922
*1418 FILLER_113_925
*1419 FILLER_113_989
*1420 FILLER_113_993
*1421 FILLER_113_996
*1422 FILLER_114_101
*1423 FILLER_114_1024
*1424 FILLER_114_1028
*1425 FILLER_114_1031
*1426 FILLER_114_1039
*1427 FILLER_114_1043
*1428 FILLER_114_105
*1429 FILLER_114_108
*1430 FILLER_114_172
*1431 FILLER_114_176
*1432 FILLER_114_179
*1433 FILLER_114_2
*1434 FILLER_114_23
*1435 FILLER_114_243
*1436 FILLER_114_247
*1437 FILLER_114_250
*1438 FILLER_114_31
*1439 FILLER_114_314
*1440 FILLER_114_318
*1441 FILLER_114_321
*1442 FILLER_114_37
*1443 FILLER_114_385
*1444 FILLER_114_389
*1445 FILLER_114_392
*1446 FILLER_114_456
*1447 FILLER_114_460
*1448 FILLER_114_463
*1449 FILLER_114_527
*1450 FILLER_114_531
*1451 FILLER_114_534
*1452 FILLER_114_598
*1453 FILLER_114_602
*1454 FILLER_114_605
*1455 FILLER_114_669
*1456 FILLER_114_673
*1457 FILLER_114_676
*1458 FILLER_114_7
*1459 FILLER_114_740
*1460 FILLER_114_744
*1461 FILLER_114_747
*1462 FILLER_114_811
*1463 FILLER_114_815
*1464 FILLER_114_818
*1465 FILLER_114_882
*1466 FILLER_114_886
*1467 FILLER_114_889
*1468 FILLER_114_953
*1469 FILLER_114_957
*1470 FILLER_114_960
*1471 FILLER_115_1028
*1472 FILLER_115_1044
*1473 FILLER_115_137
*1474 FILLER_115_141
*1475 FILLER_115_144
*1476 FILLER_115_2
*1477 FILLER_115_208
*1478 FILLER_115_212
*1479 FILLER_115_215
*1480 FILLER_115_279
*1481 FILLER_115_283
*1482 FILLER_115_286
*1483 FILLER_115_350
*1484 FILLER_115_354
*1485 FILLER_115_357
*1486 FILLER_115_421
*1487 FILLER_115_425
*1488 FILLER_115_428
*1489 FILLER_115_492
*1490 FILLER_115_496
*1491 FILLER_115_499
*1492 FILLER_115_563
*1493 FILLER_115_567
*1494 FILLER_115_570
*1495 FILLER_115_634
*1496 FILLER_115_638
*1497 FILLER_115_641
*1498 FILLER_115_66
*1499 FILLER_115_70
*1500 FILLER_115_705
*1501 FILLER_115_709
*1502 FILLER_115_712
*1503 FILLER_115_73
*1504 FILLER_115_776
*1505 FILLER_115_780
*1506 FILLER_115_783
*1507 FILLER_115_847
*1508 FILLER_115_851
*1509 FILLER_115_854
*1510 FILLER_115_918
*1511 FILLER_115_922
*1512 FILLER_115_925
*1513 FILLER_115_989
*1514 FILLER_115_993
*1515 FILLER_115_996
*1516 FILLER_116_101
*1517 FILLER_116_1024
*1518 FILLER_116_1028
*1519 FILLER_116_1031
*1520 FILLER_116_1039
*1521 FILLER_116_1043
*1522 FILLER_116_105
*1523 FILLER_116_108
*1524 FILLER_116_172
*1525 FILLER_116_176
*1526 FILLER_116_179
*1527 FILLER_116_2
*1528 FILLER_116_243
*1529 FILLER_116_247
*1530 FILLER_116_250
*1531 FILLER_116_314
*1532 FILLER_116_318
*1533 FILLER_116_321
*1534 FILLER_116_34
*1535 FILLER_116_37
*1536 FILLER_116_385
*1537 FILLER_116_389
*1538 FILLER_116_392
*1539 FILLER_116_456
*1540 FILLER_116_460
*1541 FILLER_116_463
*1542 FILLER_116_527
*1543 FILLER_116_531
*1544 FILLER_116_534
*1545 FILLER_116_598
*1546 FILLER_116_602
*1547 FILLER_116_605
*1548 FILLER_116_669
*1549 FILLER_116_673
*1550 FILLER_116_676
*1551 FILLER_116_740
*1552 FILLER_116_744
*1553 FILLER_116_747
*1554 FILLER_116_811
*1555 FILLER_116_815
*1556 FILLER_116_818
*1557 FILLER_116_882
*1558 FILLER_116_886
*1559 FILLER_116_889
*1560 FILLER_116_953
*1561 FILLER_116_957
*1562 FILLER_116_960
*1563 FILLER_117_1028
*1564 FILLER_117_1044
*1565 FILLER_117_137
*1566 FILLER_117_141
*1567 FILLER_117_144
*1568 FILLER_117_2
*1569 FILLER_117_208
*1570 FILLER_117_212
*1571 FILLER_117_215
*1572 FILLER_117_279
*1573 FILLER_117_283
*1574 FILLER_117_286
*1575 FILLER_117_350
*1576 FILLER_117_354
*1577 FILLER_117_357
*1578 FILLER_117_421
*1579 FILLER_117_425
*1580 FILLER_117_428
*1581 FILLER_117_492
*1582 FILLER_117_496
*1583 FILLER_117_499
*1584 FILLER_117_563
*1585 FILLER_117_567
*1586 FILLER_117_570
*1587 FILLER_117_634
*1588 FILLER_117_638
*1589 FILLER_117_641
*1590 FILLER_117_7
*1591 FILLER_117_705
*1592 FILLER_117_709
*1593 FILLER_117_712