*SPEF "ieee 1481-1999"
*DESIGN "tiny_user_project"
*DATE "11:11:11 Fri 11 11, 1111"
*VENDOR "OpenRCX"
*PROGRAM "Parallel Extraction"
*VERSION "1.0"
*DESIGN_FLOW "NAME_SCOPE LOCAL" "PIN_CAP NONE"
*DIVIDER /
*DELIMITER :
*BUS_DELIMITER []
*T_UNIT 1 NS
*C_UNIT 1 PF
*R_UNIT 1 OHM
*L_UNIT 1 HENRY

*NAME_MAP
*1 io_in[0]
*2 io_in[10]
*3 io_in[11]
*4 io_in[12]
*5 io_in[13]
*6 io_in[14]
*7 io_in[15]
*8 io_in[16]
*9 io_in[17]
*10 io_in[18]
*11 io_in[19]
*12 io_in[1]
*13 io_in[20]
*14 io_in[21]
*15 io_in[22]
*16 io_in[23]
*17 io_in[24]
*18 io_in[25]
*19 io_in[26]
*20 io_in[27]
*21 io_in[28]
*22 io_in[29]
*23 io_in[2]
*24 io_in[30]
*25 io_in[31]
*26 io_in[32]
*27 io_in[33]
*28 io_in[34]
*29 io_in[35]
*30 io_in[36]
*31 io_in[37]
*32 io_in[3]
*33 io_in[4]
*34 io_in[5]
*35 io_in[6]
*36 io_in[7]
*37 io_in[8]
*38 io_in[9]
*39 net110
*40 net120
*41 net121
*42 net122
*43 net123
*44 net124
*45 net125
*46 net126
*47 net127
*48 net128
*49 net129
*50 net111
*51 net130
*52 net131
*53 net132
*54 net133
*55 net134
*56 net135
*57 net136
*58 net137
*59 net138
*60 net139
*61 net112
*62 net140
*63 net141
*64 net142
*65 net143
*66 net144
*67 net145
*68 net146
*69 net147
*70 net113
*71 net114
*72 net115
*73 net116
*74 net117
*75 net118
*76 net119
*77 net79
*78 net89
*79 net90
*80 net91
*81 net92
*82 net93
*83 net94
*84 io_out[16]
*85 io_out[17]
*86 io_out[18]
*87 io_out[19]
*88 net80
*89 io_out[20]
*90 io_out[21]
*91 io_out[22]
*92 net95
*93 net96
*94 net97
*95 net98
*96 net99
*97 net100
*98 net101
*99 net81
*100 net102
*101 net103
*102 net104
*103 net105
*104 net106
*105 net107
*106 net108
*107 net109
*108 net82
*109 net83
*110 net84
*111 net85
*112 net86
*113 net87
*114 net88
*115 la_data_in[0]
*116 la_data_in[10]
*117 la_data_in[11]
*118 la_data_in[12]
*119 la_data_in[13]
*120 la_data_in[14]
*121 la_data_in[15]
*122 la_data_in[16]
*123 la_data_in[17]
*124 la_data_in[18]
*125 la_data_in[19]
*126 la_data_in[1]
*127 la_data_in[20]
*128 la_data_in[21]
*129 la_data_in[22]
*130 la_data_in[23]
*131 la_data_in[24]
*132 la_data_in[25]
*133 la_data_in[26]
*134 la_data_in[27]
*135 la_data_in[28]
*136 la_data_in[29]
*137 la_data_in[2]
*138 la_data_in[30]
*139 la_data_in[31]
*140 la_data_in[32]
*141 la_data_in[33]
*142 la_data_in[34]
*143 la_data_in[35]
*144 la_data_in[36]
*145 la_data_in[37]
*146 la_data_in[38]
*147 la_data_in[39]
*148 la_data_in[3]
*149 la_data_in[40]
*150 la_data_in[41]
*151 la_data_in[42]
*152 la_data_in[43]
*153 la_data_in[44]
*154 la_data_in[45]
*155 la_data_in[46]
*156 la_data_in[47]
*157 la_data_in[48]
*158 la_data_in[49]
*159 la_data_in[4]
*160 la_data_in[50]
*161 la_data_in[51]
*162 la_data_in[52]
*163 la_data_in[53]
*164 la_data_in[54]
*165 la_data_in[55]
*166 la_data_in[56]
*167 la_data_in[57]
*168 la_data_in[58]
*169 la_data_in[59]
*170 la_data_in[5]
*171 la_data_in[60]
*172 la_data_in[61]
*173 la_data_in[62]
*174 la_data_in[63]
*175 la_data_in[6]
*176 la_data_in[7]
*177 la_data_in[8]
*178 la_data_in[9]
*179 net15
*180 net25
*181 net26
*182 net27
*183 net28
*184 net29
*185 net30
*186 net31
*187 net32
*188 net33
*189 net34
*190 net16
*191 net35
*192 net36
*193 net37
*194 net38
*195 net39
*196 net40
*197 net41
*198 net42
*199 net43
*200 net44
*201 net17
*202 net45
*203 net46
*204 net47
*205 net48
*206 net49
*207 net50
*208 net51
*209 net52
*210 net53
*211 net54
*212 net18
*213 net55
*214 net56
*215 net57
*216 net58
*217 net59
*218 net60
*219 net61
*220 net62
*221 net63
*222 net64
*223 net19
*224 net65
*225 net66
*226 net67
*227 net68
*228 net69
*229 net70
*230 net71
*231 net72
*232 net73
*233 net74
*234 net20
*235 net75
*236 net76
*237 net77
*238 net78
*239 net21
*240 net22
*241 net23
*242 net24
*243 la_oenb[0]
*244 la_oenb[10]
*245 la_oenb[11]
*246 la_oenb[12]
*247 la_oenb[13]
*248 la_oenb[14]
*249 la_oenb[15]
*250 la_oenb[16]
*251 la_oenb[17]
*252 la_oenb[18]
*253 la_oenb[19]
*254 la_oenb[1]
*255 la_oenb[20]
*256 la_oenb[21]
*257 la_oenb[22]
*258 la_oenb[23]
*259 la_oenb[24]
*260 la_oenb[25]
*261 la_oenb[26]
*262 la_oenb[27]
*263 la_oenb[28]
*264 la_oenb[29]
*265 la_oenb[2]
*266 la_oenb[30]
*267 la_oenb[31]
*268 la_oenb[32]
*269 la_oenb[33]
*270 la_oenb[34]
*271 la_oenb[35]
*272 la_oenb[36]
*273 la_oenb[37]
*274 la_oenb[38]
*275 la_oenb[39]
*276 la_oenb[3]
*277 la_oenb[40]
*278 la_oenb[41]
*279 la_oenb[42]
*280 la_oenb[43]
*281 la_oenb[44]
*282 la_oenb[45]
*283 la_oenb[46]
*284 la_oenb[47]
*285 la_oenb[48]
*286 la_oenb[49]
*287 la_oenb[4]
*288 la_oenb[50]
*289 la_oenb[51]
*290 la_oenb[52]
*291 la_oenb[53]
*292 la_oenb[54]
*293 la_oenb[55]
*294 la_oenb[56]
*295 la_oenb[57]
*296 la_oenb[58]
*297 la_oenb[59]
*298 la_oenb[5]
*299 la_oenb[60]
*300 la_oenb[61]
*301 la_oenb[62]
*302 la_oenb[63]
*303 la_oenb[6]
*304 la_oenb[7]
*305 la_oenb[8]
*306 la_oenb[9]
*307 user_clock2
*308 net148
*309 net149
*310 net150
*313 wb_clk_i
*314 wb_rst_i
*315 net151
*316 wbs_adr_i[0]
*317 wbs_adr_i[10]
*318 wbs_adr_i[11]
*319 wbs_adr_i[12]
*320 wbs_adr_i[13]
*321 wbs_adr_i[14]
*322 wbs_adr_i[15]
*323 wbs_adr_i[16]
*324 wbs_adr_i[17]
*325 wbs_adr_i[18]
*326 wbs_adr_i[19]
*327 wbs_adr_i[1]
*328 wbs_adr_i[20]
*329 wbs_adr_i[21]
*330 wbs_adr_i[22]
*331 wbs_adr_i[23]
*332 wbs_adr_i[24]
*333 wbs_adr_i[25]
*334 wbs_adr_i[26]
*335 wbs_adr_i[27]
*336 wbs_adr_i[28]
*337 wbs_adr_i[29]
*338 wbs_adr_i[2]
*339 wbs_adr_i[30]
*340 wbs_adr_i[31]
*341 wbs_adr_i[3]
*342 wbs_adr_i[4]
*343 wbs_adr_i[5]
*344 wbs_adr_i[6]
*345 wbs_adr_i[7]
*346 wbs_adr_i[8]
*347 wbs_adr_i[9]
*348 wbs_cyc_i
*349 wbs_dat_i[0]
*350 wbs_dat_i[10]
*351 wbs_dat_i[11]
*352 wbs_dat_i[12]
*353 wbs_dat_i[13]
*354 wbs_dat_i[14]
*355 wbs_dat_i[15]
*356 wbs_dat_i[16]
*357 wbs_dat_i[17]
*358 wbs_dat_i[18]
*359 wbs_dat_i[19]
*360 wbs_dat_i[1]
*361 wbs_dat_i[20]
*362 wbs_dat_i[21]
*363 wbs_dat_i[22]
*364 wbs_dat_i[23]
*365 wbs_dat_i[24]
*366 wbs_dat_i[25]
*367 wbs_dat_i[26]
*368 wbs_dat_i[27]
*369 wbs_dat_i[28]
*370 wbs_dat_i[29]
*371 wbs_dat_i[2]
*372 wbs_dat_i[30]
*373 wbs_dat_i[31]
*374 wbs_dat_i[3]
*375 wbs_dat_i[4]
*376 wbs_dat_i[5]
*377 wbs_dat_i[6]
*378 wbs_dat_i[7]
*379 wbs_dat_i[8]
*380 wbs_dat_i[9]
*381 net152
*382 net162
*383 net163
*384 net164
*385 net165
*386 net166
*387 net167
*388 net168
*389 net169
*390 net170
*391 net171
*392 net153
*393 net172
*394 net173
*395 net174
*396 net175
*397 net176
*398 net177
*399 net178
*400 net179
*401 net180
*402 net181
*403 net154
*404 net182
*405 net183
*406 net155
*407 net156
*408 net157
*409 net158
*410 net159
*411 net160
*412 net161
*413 wbs_sel_i[0]
*414 wbs_sel_i[1]
*415 wbs_sel_i[2]
*416 wbs_sel_i[3]
*417 wbs_stb_i
*418 wbs_we_i
*419 _000_
*420 _001_
*421 _002_
*422 _003_
*423 _004_
*424 _005_
*425 _006_
*426 _007_
*427 _008_
*428 _009_
*429 _010_
*430 _011_
*431 _012_
*432 _013_
*433 _014_
*434 _015_
*435 _016_
*436 _017_
*437 _018_
*438 _019_
*439 _020_
*440 _021_
*441 _022_
*442 _023_
*443 _024_
*444 _025_
*445 _026_
*446 _027_
*447 _028_
*448 _029_
*449 _030_
*450 _031_
*451 _032_
*452 _033_
*453 _034_
*454 _035_
*455 _036_
*456 _037_
*457 _038_
*458 _039_
*459 _040_
*460 _041_
*461 _042_
*462 mod\.flipflop10\.d
*463 mod\.flipflop10\.q
*464 mod\.flipflop4\.d
*465 mod\.flipflop4\.q
*466 mod\.flipflop7\.clk
*467 mod\.flipflop7\.d
*468 mod\.flipflop7\.q
*469 mod\.flipflop8\.clk
*470 mod\.flipflop8\.d
*471 mod\.flipflop8\.q
*472 mod\.flipflop9\.clk
*473 mod\.flipflop9\.d
*474 mod\.flipflop9\.q
*475 net1
*476 net10
*477 net11
*478 net12
*479 net13
*480 net14
*481 net2
*482 net3
*483 net4
*484 net5
*485 net6
*486 net7
*487 net8
*488 net9
*489 ANTENNA__043__I
*490 ANTENNA__044__I
*491 ANTENNA__045__A2
*492 ANTENNA__046__A1
*493 ANTENNA__046__A2
*494 ANTENNA__047__A2
*495 ANTENNA__048__I
*496 ANTENNA__049__A1
*497 ANTENNA__050__A1
*498 ANTENNA__051__I
*499 ANTENNA__052__A2
*500 ANTENNA__055__A1
*501 ANTENNA__055__A2
*502 ANTENNA__056__A1
*503 ANTENNA__057__I
*504 ANTENNA__058__I
*505 ANTENNA__059__A1
*506 ANTENNA__059__A2
*507 ANTENNA__060__A1
*508 ANTENNA__060__A2
*509 ANTENNA__061__I
*510 ANTENNA__062__I
*511 ANTENNA__063__A1
*512 ANTENNA__063__A2
*513 ANTENNA__064__A1
*514 ANTENNA__064__A2
*515 ANTENNA__065__A1
*516 ANTENNA__065__A2
*517 ANTENNA__066__A1
*518 ANTENNA__066__A2
*519 ANTENNA__067__I
*520 ANTENNA__068__A1
*521 ANTENNA__068__A2
*522 ANTENNA__069__A1
*523 ANTENNA__069__A2
*524 ANTENNA__069__B
*525 ANTENNA__070__A1
*526 ANTENNA__070__A2
*527 ANTENNA__071__A1
*528 ANTENNA__071__A2
*529 ANTENNA__072__A2
*530 ANTENNA__072__B
*531 ANTENNA__073__A1
*532 ANTENNA__073__A2
*533 ANTENNA__074__A2
*534 ANTENNA__075__A2
*535 ANTENNA__076__A1
*536 ANTENNA__076__A2
*537 ANTENNA__076__B
*538 ANTENNA__077__I
*539 ANTENNA__078__A2
*540 ANTENNA__079__A1
*541 ANTENNA__079__A2
*542 ANTENNA__080__A1
*543 ANTENNA__080__A2
*544 ANTENNA__081__A2
*545 ANTENNA__081__B2
*546 ANTENNA__081__C
*547 ANTENNA__082__A1
*548 ANTENNA__082__A2
*549 ANTENNA__083__A2
*550 ANTENNA__083__C
*551 ANTENNA__084__A2
*552 ANTENNA__084__B
*553 ANTENNA__085__I
*554 ANTENNA__086__A1
*555 ANTENNA__086__A2
*556 ANTENNA__086__B
*557 ANTENNA__086__C
*558 ANTENNA__087__A1
*559 ANTENNA__087__A2
*560 ANTENNA__088__A2
*561 ANTENNA__089__A1
*562 ANTENNA__089__A2
*563 ANTENNA__089__A3
*564 ANTENNA__090__A1
*565 ANTENNA__090__B
*566 ANTENNA__091__A1
*567 ANTENNA__091__A2
*568 ANTENNA__092__A1
*569 ANTENNA__092__A2
*570 ANTENNA__093__A2
*571 ANTENNA__093__C
*572 ANTENNA__094__A1
*573 ANTENNA__094__A2
*574 ANTENNA__094__B
*575 ANTENNA__096__A1
*576 ANTENNA__096__A2
*577 ANTENNA__097__A1
*578 ANTENNA__097__A2
*579 ANTENNA__097__A3
*580 ANTENNA__098__A2
*581 ANTENNA__099__A2
*582 ANTENNA__100__A1
*583 ANTENNA__101__CLK
*584 ANTENNA__105__CLK
*585 ANTENNA_input1_I
*586 ANTENNA_input2_I
*587 ANTENNA_input3_I
*588 ANTENNA_input4_I
*589 ANTENNA_input5_I
*590 ANTENNA_input6_I
*591 ANTENNA_input7_I
*592 ANTENNA_output10_I
*593 ANTENNA_output11_I
*594 ANTENNA_output12_I
*595 ANTENNA_output13_I
*596 ANTENNA_output14_I
*597 ANTENNA_output8_I
*598 ANTENNA_output9_I
*599 FILLER_0_101
*600 FILLER_0_1011
*601 FILLER_0_1017
*602 FILLER_0_1025
*603 FILLER_0_1029
*604 FILLER_0_1044
*605 FILLER_0_107
*606 FILLER_0_11
*607 FILLER_0_115
*608 FILLER_0_119
*609 FILLER_0_135
*610 FILLER_0_139
*611 FILLER_0_142
*612 FILLER_0_174
*613 FILLER_0_177
*614 FILLER_0_2
*615 FILLER_0_209
*616 FILLER_0_212
*617 FILLER_0_228
*618 FILLER_0_233
*619 FILLER_0_237
*620 FILLER_0_239
*621 FILLER_0_244
*622 FILLER_0_247
*623 FILLER_0_251
*624 FILLER_0_257
*625 FILLER_0_263
*626 FILLER_0_27
*627 FILLER_0_279
*628 FILLER_0_282
*629 FILLER_0_287
*630 FILLER_0_299
*631 FILLER_0_317
*632 FILLER_0_323
*633 FILLER_0_329
*634 FILLER_0_345
*635 FILLER_0_349
*636 FILLER_0_352
*637 FILLER_0_368
*638 FILLER_0_37
*639 FILLER_0_372
*640 FILLER_0_377
*641 FILLER_0_387
*642 FILLER_0_395
*643 FILLER_0_411
*644 FILLER_0_419
*645 FILLER_0_422
*646 FILLER_0_426
*647 FILLER_0_431
*648 FILLER_0_447
*649 FILLER_0_449
*650 FILLER_0_454
*651 FILLER_0_457
*652 FILLER_0_462
*653 FILLER_0_466
*654 FILLER_0_468
*655 FILLER_0_473
*656 FILLER_0_485
*657 FILLER_0_489
*658 FILLER_0_492
*659 FILLER_0_508
*660 FILLER_0_516
*661 FILLER_0_521
*662 FILLER_0_527
*663 FILLER_0_53
*664 FILLER_0_543
*665 FILLER_0_551
*666 FILLER_0_559
*667 FILLER_0_562
*668 FILLER_0_59
*669 FILLER_0_594
*670 FILLER_0_597
*671 FILLER_0_6
*672 FILLER_0_602
*673 FILLER_0_608
*674 FILLER_0_612
*675 FILLER_0_617
*676 FILLER_0_625
*677 FILLER_0_629
*678 FILLER_0_632
*679 FILLER_0_65
*680 FILLER_0_664
*681 FILLER_0_667
*682 FILLER_0_672
*683 FILLER_0_676
*684 FILLER_0_678
*685 FILLER_0_683
*686 FILLER_0_69
*687 FILLER_0_695
*688 FILLER_0_699
*689 FILLER_0_702
*690 FILLER_0_718
*691 FILLER_0_72
*692 FILLER_0_726
*693 FILLER_0_731
*694 FILLER_0_737
*695 FILLER_0_749
*696 FILLER_0_761
*697 FILLER_0_769
*698 FILLER_0_77
*699 FILLER_0_772
*700 FILLER_0_777
*701 FILLER_0_793
*702 FILLER_0_801
*703 FILLER_0_807
*704 FILLER_0_827
*705 FILLER_0_835
*706 FILLER_0_839
*707 FILLER_0_842
*708 FILLER_0_874
*709 FILLER_0_877
*710 FILLER_0_885
*711 FILLER_0_893
*712 FILLER_0_909
*713 FILLER_0_912
*714 FILLER_0_93
*715 FILLER_0_944
*716 FILLER_0_947
*717 FILLER_0_952
*718 FILLER_0_960
*719 FILLER_0_964
*720 FILLER_0_966
*721 FILLER_0_971
*722 FILLER_0_979
*723 FILLER_0_982
*724 FILLER_0_987
*725 FILLER_0_995
*726 FILLER_100_101
*727 FILLER_100_1024
*728 FILLER_100_1028
*729 FILLER_100_1031
*730 FILLER_100_1039
*731 FILLER_100_1043
*732 FILLER_100_105
*733 FILLER_100_108
*734 FILLER_100_172
*735 FILLER_100_176
*736 FILLER_100_179
*737 FILLER_100_2
*738 FILLER_100_243
*739 FILLER_100_247
*740 FILLER_100_250
*741 FILLER_100_314
*742 FILLER_100_318
*743 FILLER_100_321
*744 FILLER_100_34
*745 FILLER_100_37
*746 FILLER_100_385
*747 FILLER_100_389
*748 FILLER_100_392
*749 FILLER_100_456
*750 FILLER_100_460
*751 FILLER_100_463
*752 FILLER_100_527
*753 FILLER_100_531
*754 FILLER_100_534
*755 FILLER_100_598
*756 FILLER_100_602
*757 FILLER_100_605
*758 FILLER_100_669
*759 FILLER_100_673
*760 FILLER_100_676
*761 FILLER_100_740
*762 FILLER_100_744
*763 FILLER_100_747
*764 FILLER_100_811
*765 FILLER_100_815
*766 FILLER_100_818
*767 FILLER_100_882
*768 FILLER_100_886
*769 FILLER_100_889
*770 FILLER_100_953
*771 FILLER_100_957
*772 FILLER_100_960
*773 FILLER_101_1028
*774 FILLER_101_1036
*775 FILLER_101_1044
*776 FILLER_101_137
*777 FILLER_101_141
*778 FILLER_101_144
*779 FILLER_101_2
*780 FILLER_101_208
*781 FILLER_101_212
*782 FILLER_101_215
*783 FILLER_101_279
*784 FILLER_101_283
*785 FILLER_101_286
*786 FILLER_101_350
*787 FILLER_101_354
*788 FILLER_101_357
*789 FILLER_101_421
*790 FILLER_101_425
*791 FILLER_101_428
*792 FILLER_101_492
*793 FILLER_101_496
*794 FILLER_101_499
*795 FILLER_101_563
*796 FILLER_101_567
*797 FILLER_101_570
*798 FILLER_101_634
*799 FILLER_101_638
*800 FILLER_101_641
*801 FILLER_101_66
*802 FILLER_101_70
*803 FILLER_101_705
*804 FILLER_101_709
*805 FILLER_101_712
*806 FILLER_101_73
*807 FILLER_101_776
*808 FILLER_101_780
*809 FILLER_101_783
*810 FILLER_101_847
*811 FILLER_101_851
*812 FILLER_101_854
*813 FILLER_101_918
*814 FILLER_101_922
*815 FILLER_101_925
*816 FILLER_101_989
*817 FILLER_101_993
*818 FILLER_101_996
*819 FILLER_102_101
*820 FILLER_102_1024
*821 FILLER_102_1028
*822 FILLER_102_1031
*823 FILLER_102_1039
*824 FILLER_102_1043
*825 FILLER_102_105
*826 FILLER_102_108
*827 FILLER_102_13
*828 FILLER_102_172
*829 FILLER_102_176
*830 FILLER_102_179
*831 FILLER_102_2
*832 FILLER_102_243
*833 FILLER_102_247
*834 FILLER_102_250
*835 FILLER_102_29
*836 FILLER_102_314
*837 FILLER_102_318
*838 FILLER_102_321
*839 FILLER_102_33
*840 FILLER_102_37
*841 FILLER_102_385
*842 FILLER_102_389
*843 FILLER_102_392
*844 FILLER_102_456
*845 FILLER_102_460
*846 FILLER_102_463
*847 FILLER_102_527
*848 FILLER_102_531
*849 FILLER_102_534
*850 FILLER_102_598
*851 FILLER_102_602
*852 FILLER_102_605
*853 FILLER_102_669
*854 FILLER_102_673
*855 FILLER_102_676
*856 FILLER_102_7
*857 FILLER_102_740
*858 FILLER_102_744
*859 FILLER_102_747
*860 FILLER_102_811
*861 FILLER_102_815
*862 FILLER_102_818
*863 FILLER_102_882
*864 FILLER_102_886
*865 FILLER_102_889
*866 FILLER_102_953
*867 FILLER_102_957
*868 FILLER_102_960
*869 FILLER_103_1028
*870 FILLER_103_1036
*871 FILLER_103_1044
*872 FILLER_103_137
*873 FILLER_103_141
*874 FILLER_103_144
*875 FILLER_103_2
*876 FILLER_103_208
*877 FILLER_103_212
*878 FILLER_103_215
*879 FILLER_103_279
*880 FILLER_103_283
*881 FILLER_103_286
*882 FILLER_103_350
*883 FILLER_103_354
*884 FILLER_103_357
*885 FILLER_103_421
*886 FILLER_103_425
*887 FILLER_103_428
*888 FILLER_103_492
*889 FILLER_103_496
*890 FILLER_103_499
*891 FILLER_103_563
*892 FILLER_103_567
*893 FILLER_103_570
*894 FILLER_103_634
*895 FILLER_103_638
*896 FILLER_103_641
*897 FILLER_103_66
*898 FILLER_103_70
*899 FILLER_103_705
*900 FILLER_103_709
*901 FILLER_103_712
*902 FILLER_103_73
*903 FILLER_103_776
*904 FILLER_103_780
*905 FILLER_103_783
*906 FILLER_103_847
*907 FILLER_103_851
*908 FILLER_103_854
*909 FILLER_103_918
*910 FILLER_103_922
*911 FILLER_103_925
*912 FILLER_103_989
*913 FILLER_103_993
*914 FILLER_103_996
*915 FILLER_104_101
*916 FILLER_104_1024
*917 FILLER_104_1028
*918 FILLER_104_1031
*919 FILLER_104_1039
*920 FILLER_104_1043
*921 FILLER_104_105
*922 FILLER_104_108
*923 FILLER_104_17
*924 FILLER_104_172
*925 FILLER_104_176
*926 FILLER_104_179
*927 FILLER_104_2
*928 FILLER_104_21
*929 FILLER_104_243
*930 FILLER_104_247
*931 FILLER_104_250
*932 FILLER_104_29
*933 FILLER_104_314
*934 FILLER_104_318
*935 FILLER_104_321
*936 FILLER_104_33
*937 FILLER_104_37
*938 FILLER_104_385
*939 FILLER_104_389
*940 FILLER_104_392
*941 FILLER_104_456
*942 FILLER_104_460
*943 FILLER_104_463
*944 FILLER_104_527
*945 FILLER_104_531
*946 FILLER_104_534
*947 FILLER_104_598
*948 FILLER_104_602
*949 FILLER_104_605
*950 FILLER_104_669
*951 FILLER_104_673
*952 FILLER_104_676
*953 FILLER_104_740
*954 FILLER_104_744
*955 FILLER_104_747
*956 FILLER_104_811
*957 FILLER_104_815
*958 FILLER_104_818
*959 FILLER_104_882
*960 FILLER_104_886
*961 FILLER_104_889
*962 FILLER_104_953
*963 FILLER_104_957
*964 FILLER_104_960
*965 FILLER_105_1028
*966 FILLER_105_1044
*967 FILLER_105_137
*968 FILLER_105_141
*969 FILLER_105_144
*970 FILLER_105_2
*971 FILLER_105_208
*972 FILLER_105_212
*973 FILLER_105_215
*974 FILLER_105_279
*975 FILLER_105_283
*976 FILLER_105_286
*977 FILLER_105_350
*978 FILLER_105_354
*979 FILLER_105_357
*980 FILLER_105_421
*981 FILLER_105_425
*982 FILLER_105_428
*983 FILLER_105_492
*984 FILLER_105_496
*985 FILLER_105_499
*986 FILLER_105_563
*987 FILLER_105_567
*988 FILLER_105_570
*989 FILLER_105_634
*990 FILLER_105_638
*991 FILLER_105_641
*992 FILLER_105_66
*993 FILLER_105_70
*994 FILLER_105_705
*995 FILLER_105_709
*996 FILLER_105_712
*997 FILLER_105_73
*998 FILLER_105_776
*999 FILLER_105_780
*1000 FILLER_105_783
*1001 FILLER_105_847
*1002 FILLER_105_851
*1003 FILLER_105_854
*1004 FILLER_105_918
*1005 FILLER_105_922
*1006 FILLER_105_925
*1007 FILLER_105_989
*1008 FILLER_105_993
*1009 FILLER_105_996
*1010 FILLER_106_101
*1011 FILLER_106_1024
*1012 FILLER_106_1028
*1013 FILLER_106_1031
*1014 FILLER_106_1039
*1015 FILLER_106_1043
*1016 FILLER_106_105
*1017 FILLER_106_108
*1018 FILLER_106_172
*1019 FILLER_106_176
*1020 FILLER_106_179
*1021 FILLER_106_2
*1022 FILLER_106_243
*1023 FILLER_106_247
*1024 FILLER_106_250
*1025 FILLER_106_314
*1026 FILLER_106_318
*1027 FILLER_106_321
*1028 FILLER_106_34
*1029 FILLER_106_37
*1030 FILLER_106_385
*1031 FILLER_106_389
*1032 FILLER_106_392
*1033 FILLER_106_456
*1034 FILLER_106_460
*1035 FILLER_106_463
*1036 FILLER_106_527
*1037 FILLER_106_531
*1038 FILLER_106_534
*1039 FILLER_106_598
*1040 FILLER_106_602
*1041 FILLER_106_605
*1042 FILLER_106_669
*1043 FILLER_106_673
*1044 FILLER_106_676
*1045 FILLER_106_740
*1046 FILLER_106_744
*1047 FILLER_106_747
*1048 FILLER_106_811
*1049 FILLER_106_815
*1050 FILLER_106_818
*1051 FILLER_106_882
*1052 FILLER_106_886
*1053 FILLER_106_889
*1054 FILLER_106_953
*1055 FILLER_106_957
*1056 FILLER_106_960
*1057 FILLER_107_1028
*1058 FILLER_107_1044
*1059 FILLER_107_137
*1060 FILLER_107_141
*1061 FILLER_107_144
*1062 FILLER_107_2
*1063 FILLER_107_208
*1064 FILLER_107_212
*1065 FILLER_107_215
*1066 FILLER_107_279
*1067 FILLER_107_283
*1068 FILLER_107_286
*1069 FILLER_107_350
*1070 FILLER_107_354
*1071 FILLER_107_357
*1072 FILLER_107_421
*1073 FILLER_107_425
*1074 FILLER_107_428
*1075 FILLER_107_492
*1076 FILLER_107_496
*1077 FILLER_107_499
*1078 FILLER_107_563
*1079 FILLER_107_567
*1080 FILLER_107_570
*1081 FILLER_107_634
*1082 FILLER_107_638
*1083 FILLER_107_641
*1084 FILLER_107_66
*1085 FILLER_107_70
*1086 FILLER_107_705
*1087 FILLER_107_709
*1088 FILLER_107_712
*1089 FILLER_107_73
*1090 FILLER_107_776
*1091 FILLER_107_780
*1092 FILLER_107_783
*1093 FILLER_107_847
*1094 FILLER_107_851
*1095 FILLER_107_854
*1096 FILLER_107_918
*1097 FILLER_107_922
*1098 FILLER_107_925
*1099 FILLER_107_989
*1100 FILLER_107_993
*1101 FILLER_107_996
*1102 FILLER_108_101
*1103 FILLER_108_1024
*1104 FILLER_108_1028
*1105 FILLER_108_1031
*1106 FILLER_108_1039
*1107 FILLER_108_1044
*1108 FILLER_108_105
*1109 FILLER_108_108
*1110 FILLER_108_172
*1111 FILLER_108_176
*1112 FILLER_108_179
*1113 FILLER_108_2
*1114 FILLER_108_243
*1115 FILLER_108_247
*1116 FILLER_108_250
*1117 FILLER_108_314
*1118 FILLER_108_318
*1119 FILLER_108_321
*1120 FILLER_108_34
*1121 FILLER_108_37
*1122 FILLER_108_385
*1123 FILLER_108_389
*1124 FILLER_108_392
*1125 FILLER_108_456
*1126 FILLER_108_460
*1127 FILLER_108_463
*1128 FILLER_108_527
*1129 FILLER_108_531
*1130 FILLER_108_534
*1131 FILLER_108_598
*1132 FILLER_108_602
*1133 FILLER_108_605
*1134 FILLER_108_669
*1135 FILLER_108_673
*1136 FILLER_108_676
*1137 FILLER_108_740
*1138 FILLER_108_744
*1139 FILLER_108_747
*1140 FILLER_108_811
*1141 FILLER_108_815
*1142 FILLER_108_818
*1143 FILLER_108_882
*1144 FILLER_108_886
*1145 FILLER_108_889
*1146 FILLER_108_953
*1147 FILLER_108_957
*1148 FILLER_108_960
*1149 FILLER_109_1028
*1150 FILLER_109_1044
*1151 FILLER_109_137
*1152 FILLER_109_141
*1153 FILLER_109_144
*1154 FILLER_109_2
*1155 FILLER_109_208
*1156 FILLER_109_212
*1157 FILLER_109_215
*1158 FILLER_109_279
*1159 FILLER_109_283
*1160 FILLER_109_286
*1161 FILLER_109_350
*1162 FILLER_109_354
*1163 FILLER_109_357
*1164 FILLER_109_421
*1165 FILLER_109_425
*1166 FILLER_109_428
*1167 FILLER_109_492
*1168 FILLER_109_496
*1169 FILLER_109_499
*1170 FILLER_109_563
*1171 FILLER_109_567
*1172 FILLER_109_570
*1173 FILLER_109_634
*1174 FILLER_109_638
*1175 FILLER_109_641
*1176 FILLER_109_66
*1177 FILLER_109_70
*1178 FILLER_109_705
*1179 FILLER_109_709
*1180 FILLER_109_712
*1181 FILLER_109_73
*1182 FILLER_109_776
*1183 FILLER_109_780
*1184 FILLER_109_783
*1185 FILLER_109_847
*1186 FILLER_109_851
*1187 FILLER_109_854
*1188 FILLER_109_918
*1189 FILLER_109_922
*1190 FILLER_109_925
*1191 FILLER_109_989
*1192 FILLER_109_993
*1193 FILLER_109_996
*1194 FILLER_10_101
*1195 FILLER_10_1024
*1196 FILLER_10_1028
*1197 FILLER_10_1031
*1198 FILLER_10_1039
*1199 FILLER_10_1043
*1200 FILLER_10_105
*1201 FILLER_10_108
*1202 FILLER_10_172
*1203 FILLER_10_176
*1204 FILLER_10_179
*1205 FILLER_10_2
*1206 FILLER_10_23
*1207 FILLER_10_243
*1208 FILLER_10_247
*1209 FILLER_10_250
*1210 FILLER_10_31
*1211 FILLER_10_314
*1212 FILLER_10_318
*1213 FILLER_10_321
*1214 FILLER_10_37
*1215 FILLER_10_385
*1216 FILLER_10_389
*1217 FILLER_10_392
*1218 FILLER_10_456
*1219 FILLER_10_460
*1220 FILLER_10_463
*1221 FILLER_10_527
*1222 FILLER_10_531
*1223 FILLER_10_534
*1224 FILLER_10_598
*1225 FILLER_10_602
*1226 FILLER_10_605
*1227 FILLER_10_669
*1228 FILLER_10_673
*1229 FILLER_10_676
*1230 FILLER_10_7
*1231 FILLER_10_740
*1232 FILLER_10_744
*1233 FILLER_10_747
*1234 FILLER_10_811
*1235 FILLER_10_815
*1236 FILLER_10_818
*1237 FILLER_10_882
*1238 FILLER_10_886
*1239 FILLER_10_889
*1240 FILLER_10_953
*1241 FILLER_10_957
*1242 FILLER_10_960
*1243 FILLER_110_101
*1244 FILLER_110_1024
*1245 FILLER_110_1028
*1246 FILLER_110_1031
*1247 FILLER_110_1039
*1248 FILLER_110_1043
*1249 FILLER_110_105
*1250 FILLER_110_108
*1251 FILLER_110_172
*1252 FILLER_110_176
*1253 FILLER_110_179
*1254 FILLER_110_2
*1255 FILLER_110_243
*1256 FILLER_110_247
*1257 FILLER_110_250
*1258 FILLER_110_314
*1259 FILLER_110_318
*1260 FILLER_110_321
*1261 FILLER_110_34
*1262 FILLER_110_37
*1263 FILLER_110_385
*1264 FILLER_110_389
*1265 FILLER_110_392
*1266 FILLER_110_456
*1267 FILLER_110_460
*1268 FILLER_110_463
*1269 FILLER_110_527
*1270 FILLER_110_531
*1271 FILLER_110_534
*1272 FILLER_110_598
*1273 FILLER_110_602
*1274 FILLER_110_605
*1275 FILLER_110_669
*1276 FILLER_110_673
*1277 FILLER_110_676
*1278 FILLER_110_740
*1279 FILLER_110_744
*1280 FILLER_110_747
*1281 FILLER_110_811
*1282 FILLER_110_815
*1283 FILLER_110_818
*1284 FILLER_110_882
*1285 FILLER_110_886
*1286 FILLER_110_889
*1287 FILLER_110_953
*1288 FILLER_110_957
*1289 FILLER_110_960
*1290 FILLER_111_1028
*1291 FILLER_111_1044
*1292 FILLER_111_137
*1293 FILLER_111_141
*1294 FILLER_111_144
*1295 FILLER_111_2
*1296 FILLER_111_208
*1297 FILLER_111_212
*1298 FILLER_111_215
*1299 FILLER_111_279
*1300 FILLER_111_283
*1301 FILLER_111_286
*1302 FILLER_111_350
*1303 FILLER_111_354
*1304 FILLER_111_357
*1305 FILLER_111_421
*1306 FILLER_111_425
*1307 FILLER_111_428
*1308 FILLER_111_492
*1309 FILLER_111_496
*1310 FILLER_111_499
*1311 FILLER_111_563
*1312 FILLER_111_567
*1313 FILLER_111_570
*1314 FILLER_111_634
*1315 FILLER_111_638
*1316 FILLER_111_641
*1317 FILLER_111_66
*1318 FILLER_111_70
*1319 FILLER_111_705
*1320 FILLER_111_709
*1321 FILLER_111_712
*1322 FILLER_111_73
*1323 FILLER_111_776
*1324 FILLER_111_780
*1325 FILLER_111_783
*1326 FILLER_111_847
*1327 FILLER_111_851
*1328 FILLER_111_854
*1329 FILLER_111_918
*1330 FILLER_111_922
*1331 FILLER_111_925
*1332 FILLER_111_989
*1333 FILLER_111_993
*1334 FILLER_111_996
*1335 FILLER_112_101
*1336 FILLER_112_1024
*1337 FILLER_112_1028
*1338 FILLER_112_1031
*1339 FILLER_112_1039
*1340 FILLER_112_1044
*1341 FILLER_112_105
*1342 FILLER_112_108
*1343 FILLER_112_172
*1344 FILLER_112_176
*1345 FILLER_112_179
*1346 FILLER_112_2
*1347 FILLER_112_23
*1348 FILLER_112_243
*1349 FILLER_112_247
*1350 FILLER_112_250
*1351 FILLER_112_31
*1352 FILLER_112_314
*1353 FILLER_112_318
*1354 FILLER_112_321
*1355 FILLER_112_37
*1356 FILLER_112_385
*1357 FILLER_112_389
*1358 FILLER_112_392
*1359 FILLER_112_456
*1360 FILLER_112_460
*1361 FILLER_112_463
*1362 FILLER_112_527
*1363 FILLER_112_531
*1364 FILLER_112_534
*1365 FILLER_112_598
*1366 FILLER_112_602
*1367 FILLER_112_605
*1368 FILLER_112_669
*1369 FILLER_112_673
*1370 FILLER_112_676
*1371 FILLER_112_7
*1372 FILLER_112_740
*1373 FILLER_112_744
*1374 FILLER_112_747
*1375 FILLER_112_811
*1376 FILLER_112_815
*1377 FILLER_112_818
*1378 FILLER_112_882
*1379 FILLER_112_886
*1380 FILLER_112_889
*1381 FILLER_112_953
*1382 FILLER_112_957
*1383 FILLER_112_960
*1384 FILLER_113_1028
*1385 FILLER_113_1044
*1386 FILLER_113_137
*1387 FILLER_113_141
*1388 FILLER_113_144
*1389 FILLER_113_2
*1390 FILLER_113_208
*1391 FILLER_113_212
*1392 FILLER_113_215
*1393 FILLER_113_279
*1394 FILLER_113_283
*1395 FILLER_113_286
*1396 FILLER_113_350
*1397 FILLER_113_354
*1398 FILLER_113_357
*1399 FILLER_113_421
*1400 FILLER_113_425
*1401 FILLER_113_428
*1402 FILLER_113_492
*1403 FILLER_113_496
*1404 FILLER_113_499
*1405 FILLER_113_563
*1406 FILLER_113_567
*1407 FILLER_113_570
*1408 FILLER_113_634
*1409 FILLER_113_638
*1410 FILLER_113_641
*1411 FILLER_113_66
*1412 FILLER_113_70
*1413 FILLER_113_705
*1414 FILLER_113_709
*1415 FILLER_113_712
*1416 FILLER_113_73
*1417 FILLER_113_776
*1418 FILLER_113_780
*1419 FILLER_113_783
*1420 FILLER_113_847
*1421 FILLER_113_851
*1422 FILLER_113_854
*1423 FILLER_113_918
*1424 FILLER_113_922
*1425 FILLER_113_925
*1426 FILLER_113_989
*1427 FILLER_113_993
*1428 FILLER_113_996
*1429 FILLER_114_101
*1430 FILLER_114_1024
*1431 FILLER_114_1028
*1432 FILLER_114_1031
*1433 FILLER_114_1039
*1434 FILLER_114_1043
*1435 FILLER_114_105
*1436 FILLER_114_108
*1437 FILLER_114_172
*1438 FILLER_114_176
*1439 FILLER_114_179
*1440 FILLER_114_2
*1441 FILLER_114_23
*1442 FILLER_114_243
*1443 FILLER_114_247
*1444 FILLER_114_250
*1445 FILLER_114_31
*1446 FILLER_114_314
*1447 FILLER_114_318
*1448 FILLER_114_321
*1449 FILLER_114_37
*1450 FILLER_114_385
*1451 FILLER_114_389
*1452 FILLER_114_392
*1453 FILLER_114_456
*1454 FILLER_114_460
*1455 FILLER_114_463
*1456 FILLER_114_527
*1457 FILLER_114_531
*1458 FILLER_114_534
*1459 FILLER_114_598
*1460 FILLER_114_602
*1461 FILLER_114_605
*1462 FILLER_114_669
*1463 FILLER_114_673
*1464 FILLER_114_676
*1465 FILLER_114_7
*1466 FILLER_114_740
*1467 FILLER_114_744
*1468 FILLER_114_747
*1469 FILLER_114_811
*1470 FILLER_114_815
*1471 FILLER_114_818
*1472 FILLER_114_882
*1473 FILLER_114_886
*1474 FILLER_114_889
*1475 FILLER_114_953
*1476 FILLER_114_957
*1477 FILLER_114_960
*1478 FILLER_115_1028
*1479 FILLER_115_1044
*1480 FILLER_115_137
*1481 FILLER_115_141
*1482 FILLER_115_144
*1483 FILLER_115_2
*1484 FILLER_115_208
*1485 FILLER_115_212
*1486 FILLER_115_215
*1487 FILLER_115_279
*1488 FILLER_115_283
*1489 FILLER_115_286
*1490 FILLER_115_350
*1491 FILLER_115_354
*1492 FILLER_115_357
*1493 FILLER_115_421
*1494 FILLER_115_425
*1495 FILLER_115_428
*1496 FILLER_115_492
*1497 FILLER_115_496
*1498 FILLER_115_499
*1499 FILLER_115_563
*1500 FILLER_115_567
*1501 FILLER_115_570
*1502 FILLER_115_634
*1503 FILLER_115_638
*1504 FILLER_115_641
*1505 FILLER_115_66
*1506 FILLER_115_70
*1507 FILLER_115_705
*1508 FILLER_115_709
*1509 FILLER_115_712
*1510 FILLER_115_73
*1511 FILLER_115_776
*1512 FILLER_115_780
*1513 FILLER_115_783
*1514 FILLER_115_847
*1515 FILLER_115_851
*1516 FILLER_115_854
*1517 FILLER_115_918
*1518 FILLER_115_922
*1519 FILLER_115_925
*1520 FILLER_115_989
*1521 FILLER_115_993
*1522 FILLER_115_996
*1523 FILLER_116_101
*1524 FILLER_116_1024
*1525 FILLER_116_1028
*1526 FILLER_116_1031
*1527 FILLER_116_1039
*1528 FILLER_116_1043
*1529 FILLER_116_105
*1530 FILLER_116_108
*1531 FILLER_116_172
*1532 FILLER_116_176
*1533 FILLER_116_179
*1534 FILLER_116_2
*1535 FILLER_116_243
*1536 FILLER_116_247
*1537 FILLER_116_250
*1538 FILLER_116_314
*1539 FILLER_116_318
*1540 FILLER_116_321
*1541 FILLER_116_34
*1542 FILLER_116_37
*1543 FILLER_116_385
*1544 FILLER_116_389
*1545 FILLER_116_392
*1546 FILLER_116_456
*1547 FILLER_116_460
*1548 FILLER_116_463
*1549 FILLER_116_527
*1550 FILLER_116_531
*1551 FILLER_116_534
*1552 FILLER_116_598
*1553 FILLER_116_602
*1554 FILLER_116_605
*1555 FILLER_116_669
*1556 FILLER_116_673
*1557 FILLER_116_676
*1558 FILLER_116_740
*1559 FILLER_116_744
*1560 FILLER_116_747
*1561 FILLER_116_811
*1562 FILLER_116_815
*1563 FILLER_116_818
*1564 FILLER_116_882
*1565 FILLER_116_886
*1566 FILLER_116_889
*1567 FILLER_116_953
*1568 FILLER_116_957
*1569 FILLER_116_960
*1570 FILLER_117_1028
*1571 FILLER_117_1044
*1572 FILLER_117_137
*1573 FILLER_117_141
*1574 FILLER_117_144
*1575 FILLER_117_2
*1576 FILLER_117_208
*1577 FILLER_117_212
*1578 FILLER_117_215
*1579 FILLER_117_279
*1580 FILLER_117_283
*1581 FILLER_117_286
*1582 FILLER_117_350
*1583 FILLER_117_354
*1584 FILLER_117_357
*1585 FILLER_117_421
*1586 FILLER_117_425
*1587 FILLER_117_428
*1588 FILLER_117_492
*1589 FILLER_117_496
*1590 FILLER_117_499
*1591 FILLER_117_563
*1592 FILLER_117_567