*SPEF "ieee 1481-1999"
*DESIGN "user_project_wrapper"
*DATE "11:11:11 Fri 11 11, 1111"
*VENDOR "OpenRCX"
*PROGRAM "Parallel Extraction"
*VERSION "1.0"
*DESIGN_FLOW "NAME_SCOPE LOCAL" "PIN_CAP NONE"
*DIVIDER /
*DELIMITER :
*BUS_DELIMITER []
*T_UNIT 1 NS
*C_UNIT 1 PF
*R_UNIT 1 OHM
*L_UNIT 1 HENRY

*NAME_MAP
*1 io_in[0]
*2 io_in[10]
*3 io_in[11]
*4 io_in[12]
*5 io_in[13]
*6 io_in[14]
*7 io_in[15]
*8 io_in[16]
*9 io_in[17]
*10 io_in[18]
*11 io_in[19]
*12 io_in[1]
*13 io_in[20]
*14 io_in[21]
*15 io_in[22]
*16 io_in[23]
*17 io_in[24]
*18 io_in[25]
*19 io_in[26]
*20 io_in[27]
*21 io_in[28]
*22 io_in[29]
*23 io_in[2]
*24 io_in[30]
*25 io_in[31]
*26 io_in[32]
*27 io_in[33]
*28 io_in[34]
*29 io_in[35]
*30 io_in[36]
*31 io_in[37]
*32 io_in[3]
*33 io_in[4]
*34 io_in[5]
*35 io_in[6]
*36 io_in[7]
*37 io_in[8]
*38 io_in[9]
*39 io_oeb[0]
*40 io_oeb[10]
*41 io_oeb[11]
*42 io_oeb[12]
*43 io_oeb[13]
*44 io_oeb[14]
*45 io_oeb[15]
*46 io_oeb[16]
*47 io_oeb[17]
*48 io_oeb[18]
*49 io_oeb[19]
*50 io_oeb[1]
*51 io_oeb[20]
*52 io_oeb[21]
*53 io_oeb[22]
*54 io_oeb[23]
*55 io_oeb[24]
*56 io_oeb[25]
*57 io_oeb[26]
*58 io_oeb[27]
*59 io_oeb[28]
*60 io_oeb[29]
*61 io_oeb[2]
*62 io_oeb[30]
*63 io_oeb[31]
*64 io_oeb[32]
*65 io_oeb[33]
*66 io_oeb[34]
*67 io_oeb[35]
*68 io_oeb[36]
*69 io_oeb[37]
*70 io_oeb[3]
*71 io_oeb[4]
*72 io_oeb[5]
*73 io_oeb[6]
*74 io_oeb[7]
*75 io_oeb[8]
*76 io_oeb[9]
*77 io_out[0]
*78 io_out[10]
*79 io_out[11]
*80 io_out[12]
*81 io_out[13]
*82 io_out[14]
*83 io_out[15]
*84 io_out[16]
*85 io_out[17]
*86 io_out[18]
*87 io_out[19]
*88 io_out[1]
*89 io_out[20]
*90 io_out[21]
*91 io_out[22]
*92 io_out[23]
*93 io_out[24]
*94 io_out[25]
*95 io_out[26]
*96 io_out[27]
*97 io_out[28]
*98 io_out[29]
*99 io_out[2]
*100 io_out[30]
*101 io_out[31]
*102 io_out[32]
*103 io_out[33]
*104 io_out[34]
*105 io_out[35]
*106 io_out[36]
*107 io_out[37]
*108 io_out[3]
*109 io_out[4]
*110 io_out[5]
*111 io_out[6]
*112 io_out[7]
*113 io_out[8]
*114 io_out[9]
*115 la_data_in[0]
*116 la_data_in[10]
*117 la_data_in[11]
*118 la_data_in[12]
*119 la_data_in[13]
*120 la_data_in[14]
*121 la_data_in[15]
*122 la_data_in[16]
*123 la_data_in[17]
*124 la_data_in[18]
*125 la_data_in[19]
*126 la_data_in[1]
*127 la_data_in[20]
*128 la_data_in[21]
*129 la_data_in[22]
*130 la_data_in[23]
*131 la_data_in[24]
*132 la_data_in[25]
*133 la_data_in[26]
*134 la_data_in[27]
*135 la_data_in[28]
*136 la_data_in[29]
*137 la_data_in[2]
*138 la_data_in[30]
*139 la_data_in[31]
*140 la_data_in[32]
*141 la_data_in[33]
*142 la_data_in[34]
*143 la_data_in[35]
*144 la_data_in[36]
*145 la_data_in[37]
*146 la_data_in[38]
*147 la_data_in[39]
*148 la_data_in[3]
*149 la_data_in[40]
*150 la_data_in[41]
*151 la_data_in[42]
*152 la_data_in[43]
*153 la_data_in[44]
*154 la_data_in[45]
*155 la_data_in[46]
*156 la_data_in[47]
*157 la_data_in[48]
*158 la_data_in[49]
*159 la_data_in[4]
*160 la_data_in[50]
*161 la_data_in[51]
*162 la_data_in[52]
*163 la_data_in[53]
*164 la_data_in[54]
*165 la_data_in[55]
*166 la_data_in[56]
*167 la_data_in[57]
*168 la_data_in[58]
*169 la_data_in[59]
*170 la_data_in[5]
*171 la_data_in[60]
*172 la_data_in[61]
*173 la_data_in[62]
*174 la_data_in[63]
*175 la_data_in[6]
*176 la_data_in[7]
*177 la_data_in[8]
*178 la_data_in[9]
*179 la_data_out[0]
*180 la_data_out[10]
*181 la_data_out[11]
*182 la_data_out[12]
*183 la_data_out[13]
*184 la_data_out[14]
*185 la_data_out[15]
*186 la_data_out[16]
*187 la_data_out[17]
*188 la_data_out[18]
*189 la_data_out[19]
*190 la_data_out[1]
*191 la_data_out[20]
*192 la_data_out[21]
*193 la_data_out[22]
*194 la_data_out[23]
*195 la_data_out[24]
*196 la_data_out[25]
*197 la_data_out[26]
*198 la_data_out[27]
*199 la_data_out[28]
*200 la_data_out[29]
*201 la_data_out[2]
*202 la_data_out[30]
*203 la_data_out[31]
*204 la_data_out[32]
*205 la_data_out[33]
*206 la_data_out[34]
*207 la_data_out[35]
*208 la_data_out[36]
*209 la_data_out[37]
*210 la_data_out[38]
*211 la_data_out[39]
*212 la_data_out[3]
*213 la_data_out[40]
*214 la_data_out[41]
*215 la_data_out[42]
*216 la_data_out[43]
*217 la_data_out[44]
*218 la_data_out[45]
*219 la_data_out[46]
*220 la_data_out[47]
*221 la_data_out[48]
*222 la_data_out[49]
*223 la_data_out[4]
*224 la_data_out[50]
*225 la_data_out[51]
*226 la_data_out[52]
*227 la_data_out[53]
*228 la_data_out[54]
*229 la_data_out[55]
*230 la_data_out[56]
*231 la_data_out[57]
*232 la_data_out[58]
*233 la_data_out[59]
*234 la_data_out[5]
*235 la_data_out[60]
*236 la_data_out[61]
*237 la_data_out[62]
*238 la_data_out[63]
*239 la_data_out[6]
*240 la_data_out[7]
*241 la_data_out[8]
*242 la_data_out[9]
*243 la_oenb[0]
*244 la_oenb[10]
*245 la_oenb[11]
*246 la_oenb[12]
*247 la_oenb[13]
*248 la_oenb[14]
*249 la_oenb[15]
*250 la_oenb[16]
*251 la_oenb[17]
*252 la_oenb[18]
*253 la_oenb[19]
*254 la_oenb[1]
*255 la_oenb[20]
*256 la_oenb[21]
*257 la_oenb[22]
*258 la_oenb[23]
*259 la_oenb[24]
*260 la_oenb[25]
*261 la_oenb[26]
*262 la_oenb[27]
*263 la_oenb[28]
*264 la_oenb[29]
*265 la_oenb[2]
*266 la_oenb[30]
*267 la_oenb[31]
*268 la_oenb[32]
*269 la_oenb[33]
*270 la_oenb[34]
*271 la_oenb[35]
*272 la_oenb[36]
*273 la_oenb[37]
*274 la_oenb[38]
*275 la_oenb[39]
*276 la_oenb[3]
*277 la_oenb[40]
*278 la_oenb[41]
*279 la_oenb[42]
*280 la_oenb[43]
*281 la_oenb[44]
*282 la_oenb[45]
*283 la_oenb[46]
*284 la_oenb[47]
*285 la_oenb[48]
*286 la_oenb[49]
*287 la_oenb[4]
*288 la_oenb[50]
*289 la_oenb[51]
*290 la_oenb[52]
*291 la_oenb[53]
*292 la_oenb[54]
*293 la_oenb[55]
*294 la_oenb[56]
*295 la_oenb[57]
*296 la_oenb[58]
*297 la_oenb[59]
*298 la_oenb[5]
*299 la_oenb[60]
*300 la_oenb[61]
*301 la_oenb[62]
*302 la_oenb[63]
*303 la_oenb[6]
*304 la_oenb[7]
*305 la_oenb[8]
*306 la_oenb[9]
*307 user_clock2
*308 user_irq[0]
*309 user_irq[1]
*310 user_irq[2]
*313 wb_clk_i
*314 wb_rst_i
*315 wbs_ack_o
*316 wbs_adr_i[0]
*317 wbs_adr_i[10]
*318 wbs_adr_i[11]
*319 wbs_adr_i[12]
*320 wbs_adr_i[13]
*321 wbs_adr_i[14]
*322 wbs_adr_i[15]
*323 wbs_adr_i[16]
*324 wbs_adr_i[17]
*325 wbs_adr_i[18]
*326 wbs_adr_i[19]
*327 wbs_adr_i[1]
*328 wbs_adr_i[20]
*329 wbs_adr_i[21]
*330 wbs_adr_i[22]
*331 wbs_adr_i[23]
*332 wbs_adr_i[24]
*333 wbs_adr_i[25]
*334 wbs_adr_i[26]
*335 wbs_adr_i[27]
*336 wbs_adr_i[28]
*337 wbs_adr_i[29]
*338 wbs_adr_i[2]
*339 wbs_adr_i[30]
*340 wbs_adr_i[31]
*341 wbs_adr_i[3]
*342 wbs_adr_i[4]
*343 wbs_adr_i[5]
*344 wbs_adr_i[6]
*345 wbs_adr_i[7]
*346 wbs_adr_i[8]
*347 wbs_adr_i[9]
*348 wbs_cyc_i
*349 wbs_dat_i[0]
*350 wbs_dat_i[10]
*351 wbs_dat_i[11]
*352 wbs_dat_i[12]
*353 wbs_dat_i[13]
*354 wbs_dat_i[14]
*355 wbs_dat_i[15]
*356 wbs_dat_i[16]
*357 wbs_dat_i[17]
*358 wbs_dat_i[18]
*359 wbs_dat_i[19]
*360 wbs_dat_i[1]
*361 wbs_dat_i[20]
*362 wbs_dat_i[21]
*363 wbs_dat_i[22]
*364 wbs_dat_i[23]
*365 wbs_dat_i[24]
*366 wbs_dat_i[25]
*367 wbs_dat_i[26]
*368 wbs_dat_i[27]
*369 wbs_dat_i[28]
*370 wbs_dat_i[29]
*371 wbs_dat_i[2]
*372 wbs_dat_i[30]
*373 wbs_dat_i[31]
*374 wbs_dat_i[3]
*375 wbs_dat_i[4]
*376 wbs_dat_i[5]
*377 wbs_dat_i[6]
*378 wbs_dat_i[7]
*379 wbs_dat_i[8]
*380 wbs_dat_i[9]
*381 wbs_dat_o[0]
*382 wbs_dat_o[10]
*383 wbs_dat_o[11]
*384 wbs_dat_o[12]
*385 wbs_dat_o[13]
*386 wbs_dat_o[14]
*387 wbs_dat_o[15]
*388 wbs_dat_o[16]
*389 wbs_dat_o[17]
*390 wbs_dat_o[18]
*391 wbs_dat_o[19]
*392 wbs_dat_o[1]
*393 wbs_dat_o[20]
*394 wbs_dat_o[21]
*395 wbs_dat_o[22]
*396 wbs_dat_o[23]
*397 wbs_dat_o[24]
*398 wbs_dat_o[25]
*399 wbs_dat_o[26]
*400 wbs_dat_o[27]
*401 wbs_dat_o[28]
*402 wbs_dat_o[29]
*403 wbs_dat_o[2]
*404 wbs_dat_o[30]
*405 wbs_dat_o[31]
*406 wbs_dat_o[3]
*407 wbs_dat_o[4]
*408 wbs_dat_o[5]
*409 wbs_dat_o[6]
*410 wbs_dat_o[7]
*411 wbs_dat_o[8]
*412 wbs_dat_o[9]
*413 wbs_sel_i[0]
*414 wbs_sel_i[1]
*415 wbs_sel_i[2]
*416 wbs_sel_i[3]
*417 wbs_stb_i
*418 wbs_we_i
*419 mprj

*PORTS
io_in[0] I
io_in[10] I
io_in[11] I
io_in[12] I
io_in[13] I
io_in[14] I
io_in[15] I
io_in[16] I
io_in[17] I
io_in[18] I
io_in[19] I
io_in[1] I
io_in[20] I
io_in[21] I
io_in[22] I
io_in[23] I
io_in[24] I
io_in[25] I
io_in[26] I
io_in[27] I
io_in[28] I
io_in[29] I
io_in[2] I
io_in[30] I
io_in[31] I
io_in[32] I
io_in[33] I
io_in[34] I
io_in[35] I
io_in[36] I
io_in[37] I
io_in[3] I
io_in[4] I
io_in[5] I
io_in[6] I
io_in[7] I
io_in[8] I
io_in[9] I
io_oeb[0] O
io_oeb[10] O
io_oeb[11] O
io_oeb[12] O
io_oeb[13] O
io_oeb[14] O
io_oeb[15] O
io_oeb[16] O
io_oeb[17] O
io_oeb[18] O
io_oeb[19] O
io_oeb[1] O
io_oeb[20] O
io_oeb[21] O
io_oeb[22] O
io_oeb[23] O
io_oeb[24] O
io_oeb[25] O
io_oeb[26] O
io_oeb[27] O
io_oeb[28] O
io_oeb[29] O
io_oeb[2] O
io_oeb[30] O
io_oeb[31] O
io_oeb[32] O
io_oeb[33] O
io_oeb[34] O
io_oeb[35] O
io_oeb[36] O
io_oeb[37] O
io_oeb[3] O
io_oeb[4] O
io_oeb[5] O
io_oeb[6] O
io_oeb[7] O
io_oeb[8] O
io_oeb[9] O
io_out[0] O
io_out[10] O
io_out[11] O
io_out[12] O
io_out[13] O
io_out[14] O
io_out[15] O
io_out[16] O
io_out[17] O
io_out[18] O
io_out[19] O
io_out[1] O
io_out[20] O
io_out[21] O
io_out[22] O
io_out[23] O
io_out[24] O
io_out[25] O
io_out[26] O
io_out[27] O
io_out[28] O
io_out[29] O
io_out[2] O
io_out[30] O
io_out[31] O
io_out[32] O
io_out[33] O
io_out[34] O
io_out[35] O
io_out[36] O
io_out[37] O
io_out[3] O
io_out[4] O
io_out[5] O
io_out[6] O
io_out[7] O
io_out[8] O
io_out[9] O
la_data_in[0] I
la_data_in[10] I
la_data_in[11] I
la_data_in[12] I
la_data_in[13] I
la_data_in[14] I
la_data_in[15] I
la_data_in[16] I
la_data_in[17] I
la_data_in[18] I
la_data_in[19] I
la_data_in[1] I
la_data_in[20] I
la_data_in[21] I
la_data_in[22] I
la_data_in[23] I
la_data_in[24] I
la_data_in[25] I
la_data_in[26] I
la_data_in[27] I
la_data_in[28] I
la_data_in[29] I
la_data_in[2] I
la_data_in[30] I
la_data_in[31] I
la_data_in[32] I
la_data_in[33] I
la_data_in[34] I
la_data_in[35] I
la_data_in[36] I
la_data_in[37] I
la_data_in[38] I
la_data_in[39] I
la_data_in[3] I
la_data_in[40] I
la_data_in[41] I
la_data_in[42] I
la_data_in[43] I
la_data_in[44] I
la_data_in[45] I
la_data_in[46] I
la_data_in[47] I
la_data_in[48] I
la_data_in[49] I
la_data_in[4] I
la_data_in[50] I
la_data_in[51] I
la_data_in[52] I
la_data_in[53] I
la_data_in[54] I
la_data_in[55] I
la_data_in[56] I
la_data_in[57] I
la_data_in[58] I
la_data_in[59] I
la_data_in[5] I
la_data_in[60] I
la_data_in[61] I
la_data_in[62] I
la_data_in[63] I
la_data_in[6] I
la_data_in[7] I
la_data_in[8] I
la_data_in[9] I
la_data_out[0] O
la_data_out[10] O
la_data_out[11] O
la_data_out[12] O
la_data_out[13] O
la_data_out[14] O
la_data_out[15] O
la_data_out[16] O
la_data_out[17] O
la_data_out[18] O
la_data_out[19] O
la_data_out[1] O
la_data_out[20] O
la_data_out[21] O
la_data_out[22] O
la_data_out[23] O
la_data_out[24] O
la_data_out[25] O
la_data_out[26] O
la_data_out[27] O
la_data_out[28] O
la_data_out[29] O
la_data_out[2] O
la_data_out[30] O
la_data_out[31] O
la_data_out[32] O
la_data_out[33] O
la_data_out[34] O
la_data_out[35] O
la_data_out[36] O
la_data_out[37] O
la_data_out[38] O
la_data_out[39] O
la_data_out[3] O
la_data_out[40] O
la_data_out[41] O
la_data_out[42] O
la_data_out[43] O
la_data_out[44] O
la_data_out[45] O
la_data_out[46] O
la_data_out[47] O
la_data_out[48] O
la_data_out[49] O
la_data_out[4] O
la_data_out[50] O
la_data_out[51] O
la_data_out[52] O
la_data_out[53] O
la_data_out[54] O
la_data_out[55] O
la_data_out[56] O
la_data_out[57] O
la_data_out[58] O
la_data_out[59] O
la_data_out[5] O
la_data_out[60] O
la_data_out[61] O
la_data_out[62] O
la_data_out[63] O
la_data_out[6] O
la_data_out[7] O
la_data_out[8] O
la_data_out[9] O
la_oenb[0] I
la_oenb[10] I
la_oenb[11] I
la_oenb[12] I
la_oenb[13] I
la_oenb[14] I
la_oenb[15] I
la_oenb[16] I
la_oenb[17] I
la_oenb[18] I
la_oenb[19] I
la_oenb[1] I
la_oenb[20] I
la_oenb[21] I
la_oenb[22] I
la_oenb[23] I
la_oenb[24] I
la_oenb[25] I
la_oenb[26] I
la_oenb[27] I
la_oenb[28] I
la_oenb[29] I
la_oenb[2] I
la_oenb[30] I
la_oenb[31] I
la_oenb[32] I
la_oenb[33] I
la_oenb[34] I
la_oenb[35] I
la_oenb[36] I
la_oenb[37] I
la_oenb[38] I
la_oenb[39] I
la_oenb[3] I
la_oenb[40] I
la_oenb[41] I
la_oenb[42] I
la_oenb[43] I
la_oenb[44] I
la_oenb[45] I
la_oenb[46] I
la_oenb[47] I
la_oenb[48] I
la_oenb[49] I
la_oenb[4] I
la_oenb[50] I
la_oenb[51] I
la_oenb[52] I
la_oenb[53] I
la_oenb[54] I
la_oenb[55] I
la_oenb[56] I
la_oenb[57] I
la_oenb[58] I
la_oenb[59] I
la_oenb[5] I
la_oenb[60] I
la_oenb[61] I
la_oenb[62] I
la_oenb[63] I
la_oenb[6] I
la_oenb[7] I
la_oenb[8] I
la_oenb[9] I
user_clock2 I
user_irq[0] O
user_irq[1] O
user_irq[2] O
wb_clk_i I
wb_rst_i I
wbs_ack_o O
wbs_adr_i[0] I
wbs_adr_i[10] I
wbs_adr_i[11] I
wbs_adr_i[12] I
wbs_adr_i[13] I
wbs_adr_i[14] I
wbs_adr_i[15] I
wbs_adr_i[16] I
wbs_adr_i[17] I
wbs_adr_i[18] I
wbs_adr_i[19] I
wbs_adr_i[1] I
wbs_adr_i[20] I
wbs_adr_i[21] I
wbs_adr_i[22] I
wbs_adr_i[23] I
wbs_adr_i[24] I
wbs_adr_i[25] I
wbs_adr_i[26] I
wbs_adr_i[27] I
wbs_adr_i[28] I
wbs_adr_i[29] I
wbs_adr_i[2] I
wbs_adr_i[30] I
wbs_adr_i[31] I
wbs_adr_i[3] I
wbs_adr_i[4] I
wbs_adr_i[5] I
wbs_adr_i[6] I
wbs_adr_i[7] I
wbs_adr_i[8] I
wbs_adr_i[9] I
wbs_cyc_i I
wbs_dat_i[0] I
wbs_dat_i[10] I
wbs_dat_i[11] I
wbs_dat_i[12] I
wbs_dat_i[13] I
wbs_dat_i[14] I
wbs_dat_i[15] I
wbs_dat_i[16] I
wbs_dat_i[17] I
wbs_dat_i[18] I
wbs_dat_i[19] I
wbs_dat_i[1] I
wbs_dat_i[20] I
wbs_dat_i[21] I
wbs_dat_i[22] I
wbs_dat_i[23] I
wbs_dat_i[24] I
wbs_dat_i[25] I
wbs_dat_i[26] I
wbs_dat_i[27] I
wbs_dat_i[28] I
wbs_dat_i[29] I
wbs_dat_i[2] I
wbs_dat_i[30] I
wbs_dat_i[31] I
wbs_dat_i[3] I
wbs_dat_i[4] I
wbs_dat_i[5] I
wbs_dat_i[6] I
wbs_dat_i[7] I
wbs_dat_i[8] I
wbs_dat_i[9] I
wbs_dat_o[0] O
wbs_dat_o[10] O
wbs_dat_o[11] O
wbs_dat_o[12] O
wbs_dat_o[13] O
wbs_dat_o[14] O
wbs_dat_o[15] O
wbs_dat_o[16] O
wbs_dat_o[17] O
wbs_dat_o[18] O
wbs_dat_o[19] O
wbs_dat_o[1] O
wbs_dat_o[20] O
wbs_dat_o[21] O
wbs_dat_o[22] O
wbs_dat_o[23] O
wbs_dat_o[24] O
wbs_dat_o[25] O
wbs_dat_o[26] O
wbs_dat_o[27] O
wbs_dat_o[28] O
wbs_dat_o[29] O
wbs_dat_o[2] O
wbs_dat_o[30] O
wbs_dat_o[31] O
wbs_dat_o[3] O
wbs_dat_o[4] O
wbs_dat_o[5] O
wbs_dat_o[6] O
wbs_dat_o[7] O
wbs_dat_o[8] O
wbs_dat_o[9] O
wbs_sel_i[0] I
wbs_sel_i[1] I
wbs_sel_i[2] I
wbs_sel_i[3] I
wbs_stb_i I
wbs_we_i I

*D_NET *1 0.307475
*CONN
*P io_in[0] I
*I *419:io_in[0] I *D tiny_user_project
*CAP
1 io_in[0] 0.0037337
2 *419:io_in[0] 0.000383249
3 *1:14 0.0207525
4 *1:13 0.0203693
5 *1:11 0.0732797
6 *1:10 0.0770134
7 *1:11 *335:19 0
8 *1:14 *181:11 0.00359048
9 *1:14 *299:19 0.00333884
10 *1:14 *333:19 0.00122752
11 *1:14 *368:15 0.103786
12 *1:14 *396:11 0
*RES
1 io_in[0] *1:10 46.395 
2 *1:10 *1:11 766.89 
3 *1:11 *1:13 4.5 
4 *1:13 *1:14 287.37 
5 *1:14 *419:io_in[0] 16.74 
*END

*D_NET *2 0.221959
*CONN
*P io_in[10] I
*I *419:io_in[10] I *D tiny_user_project
*CAP
1 io_in[10] 0.071414
2 *419:io_in[10] 0.000926749
3 *2:8 0.0262903
4 *2:7 0.0253636
5 *2:5 0.071414
6 *419:io_in[10] *220:12 0
7 *2:8 *37:16 0.0104006
8 *2:8 *182:11 0.0022709
9 *2:8 *192:15 0
10 *2:8 *246:21 0.00578978
11 *2:8 *395:16 0.00808932
*RES
1 io_in[10] *2:5 778.365 
2 *2:5 *2:7 4.5 
3 *2:7 *2:8 322.29 
4 *2:8 *419:io_in[10] 21.78 
*END

*D_NET *3 0.315521
*CONN
*P io_in[11] I
*I *419:io_in[11] I *D tiny_user_project
*CAP
1 io_in[11] 0.000280649
2 *419:io_in[11] 0.000937406
3 *3:16 0.039706
4 *3:15 0.0387686
5 *3:13 0.0718158
6 *3:11 0.0720964
7 *419:io_in[11] *419:io_in[14] 0.00277806
8 *3:16 *82:13 0.0634011
9 *3:16 *275:15 0.011109
10 *3:16 *332:23 0.0146279
*RES
1 io_in[11] *3:11 2.655 
2 *3:11 *3:13 782.91 
3 *3:13 *3:15 4.5 
4 *3:15 *3:16 458.55 
5 *3:16 *419:io_in[11] 27.09 
*END

*D_NET *4 0.281199
*CONN
*P io_in[12] I
*I *419:io_in[12] I *D tiny_user_project
*CAP
1 io_in[12] 0.000215438
2 *419:io_in[12] 0.00114725
3 *4:16 0.0457263
4 *4:15 0.0445791
5 *4:13 0.0722793
6 *4:11 0.0724947
7 *419:io_in[12] *419:la_oenb[28] 0.00418735
8 *4:16 *134:11 0.0405694
*RES
1 io_in[12] *4:11 2.115 
2 *4:11 *4:13 788.31 
3 *4:13 *4:15 4.5 
4 *4:15 *4:16 469.71 
5 *4:16 *419:io_in[12] 31.68 
*END

*D_NET *5 0.385159
*CONN
*P io_in[13] I
*I *419:io_in[13] I *D tiny_user_project
*CAP
1 io_in[13] 0.000145659
2 *419:io_in[13] 0.00255113
3 *5:16 0.051034
4 *5:15 0.0484829
5 *5:13 0.0724851
6 *5:11 0.0726308
7 *5:16 *112:13 0.121585
8 *5:16 *115:11 0.0133185
9 *5:16 *359:11 0.00292558
*RES
1 io_in[13] *5:11 1.575 
2 *5:11 *5:13 791.01 
3 *5:13 *5:15 4.5 
4 *5:15 *5:16 575.19 
5 *5:16 *419:io_in[13] 35.19 
*END

*D_NET *6 0.319929
*CONN
*P io_in[14] I
*I *419:io_in[14] I *D tiny_user_project
*CAP
1 io_in[14] 0.0039856
2 *419:io_in[14] 0.00136757
3 *6:12 0.0637584
4 *6:11 0.0623908
5 *6:9 0.0680405
6 *6:7 0.0720261
7 *6:9 *49:13 0
8 *6:12 *135:21 0.0259619
9 *6:12 *292:19 0.00310971
10 *6:12 *361:11 0.0165101
11 *419:io_in[11] *419:io_in[14] 0.00277806
*RES
1 io_in[14] *6:7 43.425 
2 *6:7 *6:9 742.68 
3 *6:9 *6:11 4.5 
4 *6:11 *6:12 653.31 
5 *6:12 *419:io_in[14] 31.23 
*END

*D_NET *7 0.248011
*CONN
*P io_in[15] I
*I *419:io_in[15] I *D tiny_user_project
*CAP
1 io_in[15] 0.00433039
2 *419:io_in[15] 0.00046344
3 *7:15 0.0100573
4 *7:14 0.00959386
5 *7:12 0.0666844
6 *7:11 0.0666844
7 *7:9 0.0420558
8 *7:7 0.0463861
9 *419:io_in[15] *126:14 0
10 *419:io_in[15] *197:20 1.81328e-05
11 *419:io_in[15] *207:12 0.000779279
12 *419:io_in[15] *349:14 2.48679e-05
13 *419:io_in[15] *357:14 0.000932545
14 *7:12 *74:13 0
15 *7:15 *68:12 0
*RES
1 io_in[15] *7:7 43.245 
2 *7:7 *7:9 419.94 
3 *7:9 *7:11 4.5 
4 *7:11 *7:12 652.23 
5 *7:12 *7:14 4.5 
6 *7:14 *7:15 93.15 
7 *7:15 *419:io_in[15] 25.65 
*END

*D_NET *8 0.232673
*CONN
*P io_in[16] I
*I *419:io_in[16] I *D tiny_user_project
*CAP
1 io_in[16] 0.000164983
2 *419:io_in[16] 0.000938417
3 *8:19 0.00879407
4 *8:18 0.00785565
5 *8:16 0.0414917
6 *8:15 0.0414917
7 *8:13 0.0613021
8 *8:11 0.0614671
9 *8:16 *419:la_data_in[23] 0
10 *8:16 *110:19 0
11 *8:16 *409:7 0.000584395
12 *8:19 *31:16 0.00858263
13 *8:19 *52:16 0
*RES
1 io_in[16] *8:11 1.935 
2 *8:11 *8:13 611.37 
3 *8:13 *8:15 4.5 
4 *8:15 *8:16 444.33 
5 *8:16 *8:18 4.5 
6 *8:18 *8:19 111.87 
7 *8:19 *419:io_in[16] 12.105 
*END

*D_NET *9 0.1796
*CONN
*P io_in[17] I
*I *419:io_in[17] I *D tiny_user_project
*CAP
1 io_in[17] 0.000291323
2 *419:io_in[17] 0.00446981
3 *9:21 0.00446981
4 *9:19 0.00630583
5 *9:18 0.00630583
6 *9:16 0.0266062
7 *9:15 0.0266062
8 *9:13 0.0509682
9 *9:11 0.0512595
10 *419:io_in[17] *419:la_data_in[10] 0.00180448
11 *9:19 *240:18 0.000512487
*RES
1 io_in[17] *9:11 3.015 
2 *9:11 *9:13 508.77 
3 *9:13 *9:15 4.5 
4 *9:15 *9:16 290.43 
5 *9:16 *9:18 4.5 
6 *9:18 *9:19 62.19 
7 *9:19 *9:21 4.5 
8 *9:21 *419:io_in[17] 53.505 
*END

*D_NET *10 0.170757
*CONN
*P io_in[18] I
*I *419:io_in[18] I *D tiny_user_project
*CAP
1 io_in[18] 0.000104982
2 *419:io_in[18] 0.000710094
3 *10:19 0.0500269
4 *10:18 0.0493168
5 *10:16 0.0282115
6 *10:15 0.0282115
7 *10:13 0.00634951
8 *10:11 0.0064545
9 *419:io_in[18] *419:la_data_in[39] 6.21697e-05
10 *419:io_in[18] *419:wbs_adr_i[4] 0
11 *419:io_in[18] *147:43 0.000920636
12 *419:io_in[18] *197:24 9.79173e-05
13 *419:io_in[18] *223:5 0.000290125
*RES
1 io_in[18] *10:11 1.395 
2 *10:11 *10:13 63.27 
3 *10:13 *10:15 4.5 
4 *10:15 *10:16 307.53 
5 *10:16 *10:18 4.5 
6 *10:18 *10:19 490.14 
7 *10:19 *419:io_in[18] 17.19 
*END

*D_NET *11 0.181283
*CONN
*P io_in[19] I
*I *419:io_in[19] I *D tiny_user_project
*CAP
1 io_in[19] 0.000224243
2 *419:io_in[19] 0.00726096
3 *11:21 0.00726096
4 *11:19 0.0317031
5 *11:18 0.0317031
6 *11:16 0.00562592
7 *11:15 0.00562592
8 *11:13 0.0458274
9 *11:11 0.0460516
*RES
1 io_in[19] *11:11 2.475 
2 *11:11 *11:13 457.47 
3 *11:13 *11:15 4.5 
4 *11:15 *11:16 60.93 
5 *11:16 *11:18 4.5 
6 *11:18 *11:19 311.13 
7 *11:19 *11:21 4.5 
8 *11:21 *419:io_in[19] 69.705 
*END

*D_NET *12 0.544488
*CONN
*P io_in[1] I
*I *419:io_in[1] I *D tiny_user_project
*CAP
1 io_in[1] 0.000280649
2 *419:io_in[1] 0.000385345
3 *12:19 0.02825
4 *12:18 0.0278647
5 *12:16 0.0339743
6 *12:15 0.0339743
7 *12:13 0.0126197
8 *12:11 0.0129003
9 *419:io_in[1] *419:wbs_adr_i[24] 0
10 *419:io_in[1] *273:21 0.00139737
11 *419:io_in[1] *317:21 0.000172619
12 *419:io_in[1] *348:37 2.48679e-05
13 *419:io_in[1] *349:14 2.48679e-05
14 *12:13 *292:16 0
15 *12:16 *163:13 0
16 *12:16 *290:11 0
17 *12:19 *419:wbs_adr_i[4] 0.000111906
18 *12:19 *50:13 0.00963619
19 *12:19 *133:24 0
20 *12:19 *163:16 0.333044
21 *12:19 *198:19 0.0099057
22 *12:19 *257:26 0
23 *12:19 *358:25 0
24 *12:19 *362:21 0
25 *12:19 *367:25 0.00119677
26 *12:19 *385:13 0.000652782
27 *12:19 *387:13 0.0169971
28 *12:19 *412:21 0.0210755
*RES
1 io_in[1] *12:11 2.655 
2 *12:11 *12:13 133.47 
3 *12:13 *12:15 4.5 
4 *12:15 *12:16 337.59 
5 *12:16 *12:18 4.5 
6 *12:18 *12:19 625.41 
7 *12:19 *419:io_in[1] 28.8 
*END

*D_NET *13 0.132084
*CONN
*P io_in[20] I
*I *419:io_in[20] I *D tiny_user_project
*CAP
1 io_in[20] 0.00561331
2 *419:io_in[20] 7.39609e-05
3 *13:11 0.0502086
4 *13:10 0.0501346
5 *13:8 0.00624533
6 *13:7 0.00624533
7 *13:5 0.00561331
8 *419:io_in[20] *419:wbs_dat_i[7] 2.17594e-05
9 *419:io_in[20] *197:24 9.79173e-05
10 *419:io_in[20] *223:5 0.000290125
11 *13:5 *91:8 0.00742646
12 *13:11 *419:wbs_dat_i[7] 0.000113545
*RES
1 io_in[20] *13:5 60.525 
2 *13:5 *13:7 4.5 
3 *13:7 *13:8 67.77 
4 *13:8 *13:10 4.5 
5 *13:10 *13:11 498.15 
6 *13:11 *419:io_in[20] 10.89 
*END

*D_NET *14 0.426529
*CONN
*P io_in[21] I
*I *419:io_in[21] I *D tiny_user_project
*CAP
1 io_in[21] 0.000688716
2 *419:io_in[21] 0.000697453
3 *14:14 0.00138739
4 *14:13 0.000689941
5 *14:11 0.0595545
6 *14:10 0.0595545
7 *14:8 0.00418921
8 *14:7 0.00487792
9 *419:io_in[21] *419:la_data_in[36] 0.000199471
10 *419:io_in[21] *392:18 0
11 *14:8 *15:8 0.050171
12 *14:8 *48:17 0.00219666
13 *14:11 *419:io_in[22] 0.00509418
14 *14:11 *62:10 0.00130935
15 *14:11 *86:9 0.000552381
16 *14:11 *367:19 0.154605
17 *14:11 *377:19 0.000531923
18 *14:11 *402:24 0.00208678
19 *14:11 *402:26 0.0292517
20 *14:11 *402:32 2.45503e-05
21 *14:14 *42:13 0
22 *14:14 *62:11 0.0332608
23 *14:14 *260:18 0.00665217
24 *14:14 *276:16 0.00895243
*RES
1 io_in[21] *14:7 10.665 
2 *14:7 *14:8 82.17 
3 *14:8 *14:10 4.5 
4 *14:10 *14:11 777.15 
5 *14:11 *14:13 4.5 
6 *14:13 *14:14 48.51 
7 *14:14 *419:io_in[21] 20.5161 
*END

*D_NET *15 0.359318
*CONN
*P io_in[22] I
*I *419:io_in[22] I *D tiny_user_project
*CAP
1 io_in[22] 0.000659344
2 *419:io_in[22] 0.000884023
3 *15:11 0.0557878
4 *15:10 0.0549037
5 *15:8 0.00322622
6 *15:7 0.00388556
7 *419:io_in[22] *178:16 0.00652783
8 *419:io_in[22] *278:16 0
9 *419:io_in[22] *402:24 0.00484868
10 *15:8 *48:17 0.124153
11 *15:8 *90:14 0.0491763
12 *15:11 *54:12 0
13 *14:8 *15:8 0.050171
14 *14:11 *419:io_in[22] 0.00509418
*RES
1 io_in[22] *15:7 10.845 
2 *15:7 *15:8 179.73 
3 *15:8 *15:10 4.5 
4 *15:10 *15:11 545.67 
5 *15:11 *419:io_in[22] 26.865 
*END

*D_NET *16 0.198171
*CONN
*P io_in[23] I
*I *419:io_in[23] I *D tiny_user_project
*CAP
1 io_in[23] 0.000104982
2 *419:io_in[23] 0.000730042
3 *16:19 0.00482136
4 *16:18 0.00409132
5 *16:16 0.0281792
6 *16:15 0.0281792
7 *16:13 0.0522421
8 *16:11 0.0523471
9 *16:19 *94:8 0.00801977
10 *16:19 *126:11 0.0194561
*RES
1 io_in[23] *16:11 1.395 
2 *16:11 *16:13 522.27 
3 *16:13 *16:15 4.5 
4 *16:15 *16:16 302.85 
5 *16:16 *16:18 4.5 
6 *16:18 *16:19 63.81 
7 *16:19 *419:io_in[23] 11.205 
*END

*D_NET *17 0.439296
*CONN
*P io_in[24] I
*I *419:io_in[24] I *D tiny_user_project
*CAP
1 io_in[24] 0.00235322
2 *419:io_in[24] 0.000693653
3 *17:11 0.0176032
4 *17:10 0.0169095
5 *17:8 0.0770799
6 *17:7 0.0794331
7 *419:io_in[24] *419:wbs_dat_i[2] 0.00012582
8 *17:11 *419:la_data_in[58] 0.0101337
9 *17:11 *419:la_oenb[23] 0.00186509
10 *17:11 *419:la_oenb[27] 0.00279764
11 *17:11 *419:wbs_dat_i[13] 0.00142991
12 *17:11 *419:wbs_dat_i[4] 0.00180292
13 *17:11 *42:13 0
14 *17:11 *47:18 0.000907677
15 *17:11 *62:11 0.206589
16 *17:11 *83:18 2.48679e-05
17 *17:11 *104:18 0.00341912
18 *17:11 *106:16 0.0045384
19 *17:11 *189:15 0.00304632
20 *17:11 *216:15 0.00130557
21 *17:11 *236:15 0.00304632
22 *17:11 *272:25 0.0011605
23 *17:11 *326:16 0
24 *17:11 *338:30 0.000746036
25 *17:11 *387:19 0
26 *17:11 *397:15 0.000397886
27 *17:11 *400:19 0
28 *17:11 *401:15 0.00124339
29 *17:11 *406:15 0.00064242
*RES
1 io_in[24] *17:7 29.565 
2 *17:7 *17:8 769.77 
3 *17:8 *17:10 4.5 
4 *17:10 *17:11 336.87 
5 *17:11 *419:io_in[24] 20.1561 
*END

*D_NET *18 0.243394
*CONN
*P io_in[25] I
*I *419:io_in[25] I *D tiny_user_project
*CAP
1 io_in[25] 0.000237175
2 *419:io_in[25] 0.000201957
3 *18:19 0.00166267
4 *18:18 0.00146071
5 *18:16 0.0696353
6 *18:15 0.0696353
7 *18:13 0.0127568
8 *18:11 0.012994
9 *419:io_in[25] *419:la_oenb[16] 0
10 *419:io_in[25] *85:12 0
11 *419:io_in[25] *250:17 0
12 *18:16 *363:15 0
13 *18:16 *404:13 0
14 *18:16 *412:24 0
15 *18:19 *419:la_oenb[49] 0.000435189
16 *18:19 *65:11 0.018485
17 *18:19 *96:13 0.0558903
*RES
1 io_in[25] *18:11 2.295 
2 *18:11 *18:13 138.51 
3 *18:13 *18:15 4.5 
4 *18:15 *18:16 694.71 
5 *18:16 *18:18 4.5 
6 *18:18 *18:19 80.91 
7 *18:19 *419:io_in[25] 15.2961 
*END

*D_NET *19 0.130909
*CONN
*P io_in[26] I
*I *419:io_in[26] I *D tiny_user_project
*CAP
1 io_in[26] 0.00010158
2 *419:io_in[26] 0.000231217
3 *19:19 0.0110324
4 *19:18 0.0108012
5 *19:16 0.0456952
6 *19:15 0.0456952
7 *19:13 0.00853117
8 *19:11 0.00863275
9 *419:io_in[26] *419:wbs_stb_i 0.000187805
*RES
1 io_in[26] *19:11 1.215 
2 *19:11 *19:13 92.61 
3 *19:13 *19:15 4.5 
4 *19:15 *19:16 456.39 
5 *19:16 *19:18 4.5 
6 *19:18 *19:19 99.63 
7 *19:19 *419:io_in[26] 11.7 
*END

*D_NET *20 0.124961
*CONN
*P io_in[27] I
*I *419:io_in[27] I *D tiny_user_project
*CAP
1 io_in[27] 0.00112395
2 *419:io_in[27] 9.45207e-05
3 *20:11 0.0195026
4 *20:10 0.0194081
5 *20:8 0.041854
6 *20:7 0.0429779
*RES
1 io_in[27] *20:7 16.065 
2 *20:7 *20:8 417.87 
3 *20:8 *20:10 4.5 
4 *20:10 *20:11 180.63 
5 *20:11 *419:io_in[27] 9.81 
*END

*D_NET *21 0.103675
*CONN
*P io_in[28] I
*I *419:io_in[28] I *D tiny_user_project
*CAP
1 io_in[28] 0.00165081
2 *419:io_in[28] 0.000142241
3 *21:11 0.0170799
4 *21:10 0.0169376
5 *21:8 0.0331067
6 *21:7 0.0347575
*RES
1 io_in[28] *21:7 21.465 
2 *21:7 *21:8 330.57 
3 *21:8 *21:10 4.5 
4 *21:10 *21:11 175.23 
5 *21:11 *419:io_in[28] 10.62 
*END

*D_NET *22 0.0966276
*CONN
*P io_in[29] I
*I *419:io_in[29] I *D tiny_user_project
*CAP
1 io_in[29] 0.00765471
2 *419:io_in[29] 0.000230983
3 *22:11 0.0111506
4 *22:10 0.0109196
5 *22:8 0.0295086
6 *22:7 0.0295086
7 *22:5 0.00765471
*RES
1 io_in[29] *22:5 81.765 
2 *22:5 *22:7 4.5 
3 *22:7 *22:8 294.39 
4 *22:8 *22:10 4.5 
5 *22:10 *22:11 110.43 
6 *22:11 *419:io_in[29] 11.7 
*END

*D_NET *23 0.605444
*CONN
*P io_in[2] I
*I *419:io_in[2] I *D tiny_user_project
*CAP
1 io_in[2] 0.000239227
2 *419:io_in[2] 0.000266958
3 *23:11 0.0325601
4 *23:10 0.0322931
5 *23:8 0.0147508
6 *23:7 0.01499
7 *419:io_in[2] *164:16 0.00251788
8 *419:io_in[2] *192:20 0.00083929
9 *419:io_in[2] *349:29 0.00190265
10 *23:8 *39:8 0.13963
11 *23:8 *40:14 0.0128889
12 *23:11 *76:7 0
13 *23:11 *235:19 0.352565
*RES
1 io_in[2] *23:7 6.525 
2 *23:7 *23:8 261.45 
3 *23:8 *23:10 4.5 
4 *23:10 *23:11 572.85 
5 *23:11 *419:io_in[2] 15.435 
*END

*D_NET *24 0.26869
*CONN
*P io_in[30] I
*I *419:io_in[30] I *D tiny_user_project
*CAP
1 io_in[30] 0.000237175
2 *419:io_in[30] 0.00176645
3 *24:19 0.00687641
4 *24:18 0.00510996
5 *24:16 0.0367707
6 *24:15 0.0367707
7 *24:13 0.0109326
8 *24:11 0.0111698
9 *419:io_in[30] *79:12 3.45115e-05
10 *419:io_in[30] *196:16 0
11 *24:16 *345:5 0
12 *24:16 *378:9 0
13 *24:19 *58:13 0.131613
14 *24:19 *93:13 0.00435188
15 *24:19 *333:16 0.0124712
16 *24:19 *337:16 0.00250751
17 *24:19 *373:16 0.00807811
*RES
1 io_in[30] *24:11 2.295 
2 *24:11 *24:13 116.91 
3 *24:13 *24:15 4.5 
4 *24:15 *24:16 365.31 
5 *24:16 *24:18 4.5 
6 *24:18 *24:19 209.43 
7 *24:19 *419:io_in[30] 28.7961 
*END

*D_NET *25 0.0793504
*CONN
*P io_in[31] I
*I *419:io_in[31] I *D tiny_user_project
*CAP
1 io_in[31] 0.00199762
2 *419:io_in[31] 4.46606e-05
3 *25:19 0.0164634
4 *25:18 0.0164187
5 *25:16 0.0197215
6 *25:15 0.0217191
7 *419:io_in[31] *419:la_oenb[39] 0.000187842
8 *25:19 *419:la_oenb[39] 0.00279756
*RES
1 io_in[31] *25:15 25.425 
2 *25:15 *25:16 197.01 
3 *25:16 *25:18 4.5 
4 *25:18 *25:19 172.53 
5 *25:19 *419:io_in[31] 9.81 
*END

*D_NET *26 0.305102
*CONN
*P io_in[32] I
*I *419:io_in[32] I *D tiny_user_project
*CAP
1 io_in[32] 0.00247302
2 *419:io_in[32] 0.00136194
3 *26:19 0.0120362
4 *26:18 0.0106743
5 *26:16 0.0225086
6 *26:15 0.0249816
7 *26:19 *83:19 0.0583772
8 *26:19 *101:13 0.131986
9 *26:19 *302:16 0
10 *26:19 *374:16 0.00598383
11 *26:19 *380:8 0.0279762
12 *26:19 *403:11 0.000629468
13 *26:19 *405:11 0.00611335
*RES
1 io_in[32] *26:15 29.745 
2 *26:15 *26:16 224.55 
3 *26:16 *26:18 4.5 
4 *26:18 *26:19 343.89 
5 *26:19 *419:io_in[32] 25.7361 
*END

*D_NET *27 0.0634651
*CONN
*P io_in[33] I
*I *419:io_in[33] I *D tiny_user_project
*CAP
1 io_in[33] 0.000167681
2 *419:io_in[33] 7.56843e-05
3 *27:19 0.00926512
4 *27:18 0.00918944
5 *27:16 0.0124662
6 *27:15 0.0124662
7 *27:13 0.00983354
8 *27:11 0.0100012
9 *27:16 *344:13 0
*RES
1 io_in[33] *27:11 1.755 
2 *27:11 *27:13 103.41 
3 *27:13 *27:15 4.5 
4 *27:15 *27:16 124.11 
5 *27:16 *27:18 4.5 
6 *27:18 *27:19 88.83 
7 *27:19 *419:io_in[33] 9.81 
*END

*D_NET *28 0.0610619
*CONN
*P io_in[34] I
*I *419:io_in[34] I *D tiny_user_project
*CAP
1 io_in[34] 0.00394102
2 *419:io_in[34] 0.000107104
3 *28:11 0.0139439
4 *28:10 0.0138368
5 *28:8 0.0106286
6 *28:7 0.0145697
7 *419:io_in[34] *419:la_data_in[27] 3.52204e-05
8 *28:11 *419:la_data_in[27] 0.00399958
*RES
1 io_in[34] *28:7 45.765 
2 *28:7 *28:8 105.93 
3 *28:8 *28:10 4.5 
4 *28:10 *28:11 150.93 
5 *28:11 *419:io_in[34] 10.26 
*END

*D_NET *29 0.212853
*CONN
*P io_in[35] I
*I *419:io_in[35] I *D tiny_user_project
*CAP
1 io_in[35] 0.00251587
2 *419:io_in[35] 0.00115666
3 *29:19 0.0279869
4 *29:18 0.0268303
5 *29:16 0.0220145
6 *29:15 0.0245304
7 *419:io_in[35] *147:28 1.81328e-05
8 *419:io_in[35] *223:5 4.14464e-05
9 *29:15 *107:10 0.00565745
10 *29:16 *348:13 0
11 *29:19 *72:13 0.0230641
12 *29:19 *102:15 0.00373491
13 *29:19 *111:16 0
14 *29:19 *187:13 0.0099672
15 *29:19 *399:13 0.0653346
*RES
1 io_in[35] *29:15 34.425 
2 *29:15 *29:16 219.87 
3 *29:16 *29:18 4.5 
4 *29:18 *29:19 335.25 
5 *29:19 *419:io_in[35] 23.76 
*END

*D_NET *30 0.333498
*CONN
*P io_in[36] I
*I *419:io_in[36] I *D tiny_user_project
*CAP
1 io_in[36] 0.00010158